* NGSPICE file created from spm.ext - technology: sky130A

* Black-box entry subcircuit for sky130_fd_sc_hd__tapvpwrvgnd_1 abstract view
.subckt sky130_fd_sc_hd__tapvpwrvgnd_1 VGND VPWR
.ends

* Black-box entry subcircuit for sky130_ef_sc_hd__decap_12 abstract view
.subckt sky130_ef_sc_hd__decap_12 VPWR VGND VPB VNB
.ends

* Black-box entry subcircuit for sky130_fd_sc_hd__dfrtp_1 abstract view
.subckt sky130_fd_sc_hd__dfrtp_1 CLK D RESET_B VGND VNB VPB VPWR Q
.ends

* Black-box entry subcircuit for sky130_fd_sc_hd__decap_3 abstract view
.subckt sky130_fd_sc_hd__decap_3 VGND VNB VPB VPWR
.ends

* Black-box entry subcircuit for sky130_fd_sc_hd__xnor2_1 abstract view
.subckt sky130_fd_sc_hd__xnor2_1 A B VGND VNB VPB VPWR Y
.ends

* Black-box entry subcircuit for sky130_fd_sc_hd__decap_8 abstract view
.subckt sky130_fd_sc_hd__decap_8 VGND VNB VPB VPWR
.ends

* Black-box entry subcircuit for sky130_fd_sc_hd__a21bo_1 abstract view
.subckt sky130_fd_sc_hd__a21bo_1 A1 A2 B1_N VGND VNB VPB VPWR X
.ends

* Black-box entry subcircuit for sky130_fd_sc_hd__decap_6 abstract view
.subckt sky130_fd_sc_hd__decap_6 VGND VNB VPB VPWR
.ends

* Black-box entry subcircuit for sky130_fd_sc_hd__nand2_1 abstract view
.subckt sky130_fd_sc_hd__nand2_1 A B VGND VNB VPB VPWR Y
.ends

* Black-box entry subcircuit for sky130_fd_sc_hd__clkbuf_16 abstract view
.subckt sky130_fd_sc_hd__clkbuf_16 A VGND VNB VPB VPWR X
.ends

* Black-box entry subcircuit for sky130_fd_sc_hd__fill_2 abstract view
.subckt sky130_fd_sc_hd__fill_2 VGND VNB VPB VPWR
.ends

* Black-box entry subcircuit for sky130_fd_sc_hd__nand3_1 abstract view
.subckt sky130_fd_sc_hd__nand3_1 A B C VGND VNB VPB VPWR Y
.ends

* Black-box entry subcircuit for sky130_fd_sc_hd__fill_1 abstract view
.subckt sky130_fd_sc_hd__fill_1 VGND VNB VPB VPWR
.ends

* Black-box entry subcircuit for sky130_fd_sc_hd__decap_4 abstract view
.subckt sky130_fd_sc_hd__decap_4 VGND VNB VPB VPWR
.ends

* Black-box entry subcircuit for sky130_fd_sc_hd__nor2_1 abstract view
.subckt sky130_fd_sc_hd__nor2_1 A B VGND VNB VPB VPWR Y
.ends

* Black-box entry subcircuit for sky130_fd_sc_hd__clkbuf_4 abstract view
.subckt sky130_fd_sc_hd__clkbuf_4 A VGND VNB VPB VPWR X
.ends

* Black-box entry subcircuit for sky130_fd_sc_hd__a21oi_1 abstract view
.subckt sky130_fd_sc_hd__a21oi_1 A1 A2 B1 VGND VNB VPB VPWR Y
.ends

* Black-box entry subcircuit for sky130_fd_sc_hd__a21o_1 abstract view
.subckt sky130_fd_sc_hd__a21o_1 A1 A2 B1 VGND VNB VPB VPWR X
.ends

* Black-box entry subcircuit for sky130_fd_sc_hd__clkbuf_1 abstract view
.subckt sky130_fd_sc_hd__clkbuf_1 A VGND VNB VPB VPWR X
.ends

* Black-box entry subcircuit for sky130_fd_sc_hd__and3_1 abstract view
.subckt sky130_fd_sc_hd__and3_1 A B C VGND VNB VPB VPWR X
.ends

* Black-box entry subcircuit for sky130_fd_sc_hd__buf_1 abstract view
.subckt sky130_fd_sc_hd__buf_1 A VGND VNB VPB VPWR X
.ends

* Black-box entry subcircuit for sky130_fd_sc_hd__buf_12 abstract view
.subckt sky130_fd_sc_hd__buf_12 A VGND VNB VPB VPWR X
.ends

.subckt spm VGND VPWR a[0] a[10] a[11] a[12] a[13] a[14] a[15] a[16] a[17] a[18] a[19]
+ a[1] a[20] a[21] a[22] a[23] a[24] a[25] a[26] a[27] a[28] a[29] a[2] a[30] a[31]
+ a[3] a[4] a[5] a[6] a[7] a[8] a[9] clk rst x y
XTAP_TAPCELL_ROW_24_139 VGND VPWR sky130_fd_sc_hd__tapvpwrvgnd_1
XFILLER_0_7_81 VPWR VGND VPWR VGND sky130_ef_sc_hd__decap_12
X_294_ clknet_3_3__leaf_clk dsa\[13\].last_carry_next net33 VGND VGND VPWR VPWR dsa\[13\].last_carry
+ sky130_fd_sc_hd__dfrtp_1
XFILLER_0_3_39 VPWR VGND VPWR VGND sky130_ef_sc_hd__decap_12
XPHY_EDGE_ROW_19_Left_50 VGND VGND VPWR VPWR sky130_fd_sc_hd__decap_3
XFILLER_0_18_29 VPWR VGND VPWR VGND sky130_ef_sc_hd__decap_12
X_277_ clknet_3_4__leaf_clk dsa\[4\].y_out_next net33 VGND VGND VPWR VPWR dsa\[4\].y_out
+ sky130_fd_sc_hd__dfrtp_1
X_131_ dsa\[5\].y_out _052_ VGND VGND VPWR VPWR dsa\[6\].y_out_next sky130_fd_sc_hd__xnor2_1
XFILLER_0_20_19 VGND VGND VPWR VPWR sky130_fd_sc_hd__decap_8
XPHY_EDGE_ROW_4_Left_35 VGND VGND VPWR VPWR sky130_fd_sc_hd__decap_3
X_200_ dsa\[19\].y_out _008_ _010_ VGND VGND VPWR VPWR dsa\[20\].last_carry_next sky130_fd_sc_hd__a21bo_1
XFILLER_0_0_29 VPWR VGND VPWR VGND sky130_ef_sc_hd__decap_12
X_329_ clknet_3_0__leaf_clk dsa\[30\].y_out_next net33 VGND VGND VPWR VPWR dsa\[30\].y_out
+ sky130_fd_sc_hd__dfrtp_1
XFILLER_0_9_49 VGND VGND VPWR VPWR sky130_fd_sc_hd__decap_6
X_114_ _037_ _039_ VGND VGND VPWR VPWR _040_ sky130_fd_sc_hd__nand2_1
XFILLER_0_26_29 VGND VGND VPWR VPWR sky130_fd_sc_hd__decap_6
XFILLER_0_21_131 VPWR VGND VPWR VGND sky130_ef_sc_hd__decap_12
XTAP_TAPCELL_ROW_27_148 VGND VPWR sky130_fd_sc_hd__tapvpwrvgnd_1
XFILLER_0_4_172 VGND VGND VPWR VPWR sky130_fd_sc_hd__decap_8
XFILLER_0_7_93 VPWR VGND VPWR VGND sky130_ef_sc_hd__decap_12
Xclkbuf_3_6__f_clk clknet_0_clk VGND VGND VPWR VPWR clknet_3_6__leaf_clk sky130_fd_sc_hd__clkbuf_16
X_293_ clknet_3_3__leaf_clk dsa\[12\].y_out_next net33 VGND VGND VPWR VPWR dsa\[12\].y_out
+ sky130_fd_sc_hd__dfrtp_1
XFILLER_0_2_109 VPWR VGND VPWR VGND sky130_ef_sc_hd__decap_12
XPHY_EDGE_ROW_20_Left_51 VGND VGND VPWR VPWR sky130_fd_sc_hd__decap_3
XTAP_TAPCELL_ROW_8_89 VGND VPWR sky130_fd_sc_hd__tapvpwrvgnd_1
X_276_ clknet_3_4__leaf_clk dsa\[4\].last_carry_next net33 VGND VGND VPWR VPWR dsa\[4\].last_carry
+ sky130_fd_sc_hd__dfrtp_1
X_130_ _050_ _051_ VGND VGND VPWR VPWR _052_ sky130_fd_sc_hd__nand2_1
XPHY_EDGE_ROW_21_Right_21 VGND VGND VPWR VPWR sky130_fd_sc_hd__decap_3
XPHY_EDGE_ROW_12_Right_12 VGND VGND VPWR VPWR sky130_fd_sc_hd__decap_3
XPHY_EDGE_ROW_30_Right_30 VGND VGND VPWR VPWR sky130_fd_sc_hd__decap_3
XFILLER_0_29_29 VGND VGND VPWR VPWR sky130_fd_sc_hd__fill_2
X_259_ dsa\[15\].y_out _023_ VGND VGND VPWR VPWR dsa\[16\].y_out_next sky130_fd_sc_hd__xnor2_1
X_328_ clknet_3_0__leaf_clk dsa\[30\].last_carry_next net33 VGND VGND VPWR VPWR dsa\[30\].last_carry
+ sky130_fd_sc_hd__dfrtp_1
XFILLER_0_27_181 VGND VGND VPWR VPWR sky130_fd_sc_hd__fill_2
X_113_ _038_ net16 dsa\[8\].last_carry VGND VGND VPWR VPWR _039_ sky130_fd_sc_hd__nand3_1
XFILLER_0_25_129 VPWR VGND VPWR VGND sky130_ef_sc_hd__decap_12
XFILLER_0_24_162 VGND VGND VPWR VPWR sky130_fd_sc_hd__fill_1
XFILLER_0_21_96 VGND VGND VPWR VPWR sky130_fd_sc_hd__fill_1
XFILLER_0_16_118 VGND VGND VPWR VPWR sky130_fd_sc_hd__decap_3
XFILLER_0_30_154 VGND VGND VPWR VPWR sky130_fd_sc_hd__decap_3
XFILLER_0_27_3 VPWR VGND VPWR VGND sky130_ef_sc_hd__decap_12
XFILLER_0_1_51 VGND VGND VPWR VPWR sky130_fd_sc_hd__decap_4
XFILLER_0_21_143 VPWR VGND VPWR VGND sky130_ef_sc_hd__decap_12
XPHY_EDGE_ROW_6_Right_6 VGND VGND VPWR VPWR sky130_fd_sc_hd__decap_3
XFILLER_0_7_181 VGND VGND VPWR VPWR sky130_fd_sc_hd__fill_2
X_292_ clknet_3_3__leaf_clk dsa\[12\].last_carry_next net33 VGND VGND VPWR VPWR dsa\[12\].last_carry
+ sky130_fd_sc_hd__dfrtp_1
X_275_ clknet_3_5__leaf_clk dsa\[3\].y_out_next net33 VGND VGND VPWR VPWR dsa\[3\].y_out
+ sky130_fd_sc_hd__dfrtp_1
XTAP_TAPCELL_ROW_11_100 VGND VPWR sky130_fd_sc_hd__tapvpwrvgnd_1
XFILLER_0_24_41 VGND VGND VPWR VPWR sky130_fd_sc_hd__decap_4
X_189_ dsa\[0\].last_carry_next _095_ VGND VGND VPWR VPWR dsa\[0\].y_out_next sky130_fd_sc_hd__nor2_1
X_327_ clknet_3_1__leaf_clk dsa\[29\].y_out_next net33 VGND VGND VPWR VPWR dsa\[29\].y_out
+ sky130_fd_sc_hd__dfrtp_1
X_258_ _021_ _022_ VGND VGND VPWR VPWR _023_ sky130_fd_sc_hd__nand2_1
XFILLER_0_18_182 VGND VGND VPWR VPWR sky130_fd_sc_hd__fill_1
X_112_ _000_ VGND VGND VPWR VPWR _038_ sky130_fd_sc_hd__clkbuf_4
XFILLER_0_24_141 VGND VGND VPWR VPWR sky130_fd_sc_hd__decap_8
XFILLER_0_21_20 VGND VGND VPWR VPWR sky130_fd_sc_hd__decap_8
XFILLER_0_30_166 VGND VGND VPWR VPWR sky130_fd_sc_hd__fill_2
XFILLER_0_30_144 VGND VGND VPWR VPWR sky130_fd_sc_hd__fill_1
XFILLER_0_30_100 VGND VGND VPWR VPWR sky130_fd_sc_hd__decap_3
XFILLER_0_21_155 VPWR VGND VPWR VGND sky130_ef_sc_hd__decap_12
XFILLER_0_8_138 VGND VGND VPWR VPWR sky130_fd_sc_hd__fill_2
XFILLER_0_9_3 VGND VGND VPWR VPWR sky130_fd_sc_hd__fill_1
XFILLER_0_27_74 VGND VGND VPWR VPWR sky130_fd_sc_hd__decap_4
XFILLER_0_27_41 VPWR VGND VPWR VGND sky130_ef_sc_hd__decap_12
X_291_ clknet_3_3__leaf_clk dsa\[11\].y_out_next net33 VGND VGND VPWR VPWR dsa\[11\].y_out
+ sky130_fd_sc_hd__dfrtp_1
XFILLER_0_4_141 VGND VGND VPWR VPWR sky130_fd_sc_hd__decap_4
XFILLER_0_7_51 VGND VGND VPWR VPWR sky130_fd_sc_hd__decap_4
XFILLER_0_1_111 VGND VGND VPWR VPWR sky130_fd_sc_hd__fill_1
X_274_ clknet_3_5__leaf_clk dsa\[3\].last_carry_next net33 VGND VGND VPWR VPWR dsa\[3\].last_carry
+ sky130_fd_sc_hd__dfrtp_1
XFILLER_0_28_117 VGND VGND VPWR VPWR sky130_fd_sc_hd__fill_2
X_188_ _009_ net25 dsa\[0\].last_carry VGND VGND VPWR VPWR _095_ sky130_fd_sc_hd__a21oi_1
XFILLER_0_19_64 VPWR VGND VPWR VGND sky130_ef_sc_hd__decap_12
X_257_ _009_ net7 dsa\[16\].last_carry VGND VGND VPWR VPWR _022_ sky130_fd_sc_hd__nand3_1
X_326_ clknet_3_0__leaf_clk dsa\[29\].last_carry_next net33 VGND VGND VPWR VPWR dsa\[29\].last_carry
+ sky130_fd_sc_hd__dfrtp_1
XPHY_EDGE_ROW_8_Left_39 VGND VGND VPWR VPWR sky130_fd_sc_hd__decap_3
X_111_ _030_ net16 dsa\[8\].last_carry VGND VGND VPWR VPWR _037_ sky130_fd_sc_hd__a21o_1
X_309_ clknet_3_1__leaf_clk dsa\[20\].y_out_next net33 VGND VGND VPWR VPWR dsa\[20\].y_out
+ sky130_fd_sc_hd__dfrtp_1
XFILLER_0_15_175 VGND VGND VPWR VPWR sky130_fd_sc_hd__decap_8
XFILLER_0_15_153 VPWR VGND VPWR VGND sky130_ef_sc_hd__decap_12
XFILLER_0_30_178 VGND VGND VPWR VPWR sky130_fd_sc_hd__fill_2
XFILLER_0_21_167 VGND VGND VPWR VPWR sky130_fd_sc_hd__fill_1
XFILLER_0_7_161 VGND VGND VPWR VPWR sky130_fd_sc_hd__decap_6
XFILLER_0_27_53 VGND VGND VPWR VPWR sky130_fd_sc_hd__decap_3
X_290_ clknet_3_6__leaf_clk dsa\[11\].last_carry_next net33 VGND VGND VPWR VPWR dsa\[11\].last_carry
+ sky130_fd_sc_hd__dfrtp_1
XFILLER_0_1_167 VGND VGND VPWR VPWR sky130_fd_sc_hd__fill_1
X_273_ clknet_3_5__leaf_clk dsa\[2\].y_out_next net33 VGND VGND VPWR VPWR dsa\[2\].y_out
+ sky130_fd_sc_hd__dfrtp_1
X_187_ _094_ VGND VGND VPWR VPWR dsa\[0\].last_carry_next sky130_fd_sc_hd__clkbuf_1
XPHY_EDGE_ROW_24_Left_55 VGND VGND VPWR VPWR sky130_fd_sc_hd__decap_3
XFILLER_0_19_76 VGND VGND VPWR VPWR sky130_fd_sc_hd__decap_6
X_325_ clknet_3_0__leaf_clk dsa\[28\].y_out_next net33 VGND VGND VPWR VPWR dsa\[28\].y_out
+ sky130_fd_sc_hd__dfrtp_1
X_256_ _001_ net7 dsa\[16\].last_carry VGND VGND VPWR VPWR _021_ sky130_fd_sc_hd__a21o_1
X_110_ dsa\[23\].y_out _036_ VGND VGND VPWR VPWR dsa\[24\].y_out_next sky130_fd_sc_hd__xnor2_1
XFILLER_0_21_55 VGND VGND VPWR VPWR sky130_fd_sc_hd__fill_1
XFILLER_0_21_11 VGND VGND VPWR VPWR sky130_fd_sc_hd__fill_1
X_308_ clknet_3_1__leaf_clk dsa\[20\].last_carry_next net33 VGND VGND VPWR VPWR dsa\[20\].last_carry
+ sky130_fd_sc_hd__dfrtp_1
X_239_ _001_ net3 dsa\[20\].last_carry VGND VGND VPWR VPWR _008_ sky130_fd_sc_hd__a21o_1
XFILLER_0_30_124 VGND VGND VPWR VPWR sky130_fd_sc_hd__decap_3
XFILLER_0_30_113 VGND VGND VPWR VPWR sky130_fd_sc_hd__fill_2
XFILLER_0_15_165 VGND VGND VPWR VPWR sky130_fd_sc_hd__decap_3
XFILLER_0_16_88 VGND VGND VPWR VPWR sky130_fd_sc_hd__fill_1
XFILLER_0_16_33 VGND VGND VPWR VPWR sky130_fd_sc_hd__fill_1
XFILLER_0_8_118 VGND VGND VPWR VPWR sky130_fd_sc_hd__decap_6
Xoutput35 net35 VGND VGND VPWR VPWR y sky130_fd_sc_hd__clkbuf_1
XPHY_EDGE_ROW_11_Left_42 VGND VGND VPWR VPWR sky130_fd_sc_hd__decap_3
XPHY_EDGE_ROW_28_Right_28 VGND VGND VPWR VPWR sky130_fd_sc_hd__decap_3
XPHY_EDGE_ROW_19_Right_19 VGND VGND VPWR VPWR sky130_fd_sc_hd__decap_3
XTAP_TAPCELL_ROW_18_119 VGND VPWR sky130_fd_sc_hd__tapvpwrvgnd_1
Xclkbuf_3_1__f_clk clknet_0_clk VGND VGND VPWR VPWR clknet_3_1__leaf_clk sky130_fd_sc_hd__clkbuf_16
XFILLER_0_27_65 VGND VGND VPWR VPWR sky130_fd_sc_hd__fill_2
XFILLER_0_1_113 VPWR VGND VPWR VGND sky130_ef_sc_hd__decap_12
XTAP_TAPCELL_ROW_20_125 VGND VPWR sky130_fd_sc_hd__tapvpwrvgnd_1
X_272_ clknet_3_5__leaf_clk dsa\[2\].last_carry_next net33 VGND VGND VPWR VPWR dsa\[2\].last_carry
+ sky130_fd_sc_hd__dfrtp_1
XFILLER_0_4_76 VGND VGND VPWR VPWR sky130_fd_sc_hd__decap_8
X_186_ _000_ net25 dsa\[0\].last_carry VGND VGND VPWR VPWR _094_ sky130_fd_sc_hd__and3_1
X_324_ clknet_3_0__leaf_clk dsa\[28\].last_carry_next net33 VGND VGND VPWR VPWR dsa\[28\].last_carry
+ sky130_fd_sc_hd__dfrtp_1
X_255_ dsa\[17\].y_out _020_ VGND VGND VPWR VPWR dsa\[18\].y_out_next sky130_fd_sc_hd__xnor2_1
XFILLER_0_27_141 VGND VGND VPWR VPWR sky130_fd_sc_hd__decap_6
XFILLER_0_19_55 VGND VGND VPWR VPWR sky130_fd_sc_hd__fill_1
XTAP_TAPCELL_ROW_9_92 VGND VPWR sky130_fd_sc_hd__tapvpwrvgnd_1
XFILLER_0_18_141 VGND VGND VPWR VPWR sky130_fd_sc_hd__decap_8
X_169_ dsa\[10\].y_out _081_ VGND VGND VPWR VPWR dsa\[11\].y_out_next sky130_fd_sc_hd__xnor2_1
XFILLER_0_1_55 VGND VGND VPWR VPWR sky130_fd_sc_hd__fill_1
X_307_ clknet_3_1__leaf_clk dsa\[19\].y_out_next net33 VGND VGND VPWR VPWR dsa\[19\].y_out
+ sky130_fd_sc_hd__dfrtp_1
X_238_ dsa\[1\].y_out _007_ VGND VGND VPWR VPWR dsa\[2\].y_out_next sky130_fd_sc_hd__xnor2_1
XFILLER_0_30_136 VGND VGND VPWR VPWR sky130_fd_sc_hd__decap_4
XFILLER_0_15_111 VGND VGND VPWR VPWR sky130_fd_sc_hd__fill_1
XFILLER_0_21_169 VPWR VGND VPWR VGND sky130_ef_sc_hd__decap_12
XFILLER_0_18_3 VPWR VGND VPWR VGND sky130_ef_sc_hd__decap_12
XFILLER_0_27_22 VPWR VGND VPWR VGND sky130_ef_sc_hd__decap_12
XFILLER_0_4_111 VPWR VGND VPWR VGND sky130_ef_sc_hd__decap_12
XTAP_TAPCELL_ROW_23_134 VGND VPWR sky130_fd_sc_hd__tapvpwrvgnd_1
XFILLER_0_7_3 VPWR VGND VPWR VGND sky130_ef_sc_hd__decap_12
XFILLER_0_1_169 VPWR VGND VPWR VGND sky130_ef_sc_hd__decap_12
XFILLER_0_1_125 VPWR VGND VPWR VGND sky130_ef_sc_hd__decap_12
XFILLER_0_13_57 VGND VGND VPWR VPWR sky130_fd_sc_hd__decap_3
XTAP_TAPCELL_ROW_20_126 VGND VPWR sky130_fd_sc_hd__tapvpwrvgnd_1
XFILLER_0_24_78 VGND VGND VPWR VPWR sky130_fd_sc_hd__decap_6
XFILLER_0_24_56 VGND VGND VPWR VPWR sky130_fd_sc_hd__fill_2
XFILLER_0_24_45 VGND VGND VPWR VPWR sky130_fd_sc_hd__fill_1
X_271_ clknet_3_5__leaf_clk dsa\[1\].y_out_next net33 VGND VGND VPWR VPWR dsa\[1\].y_out
+ sky130_fd_sc_hd__dfrtp_1
XFILLER_0_4_55 VGND VGND VPWR VPWR sky130_fd_sc_hd__fill_1
XFILLER_0_28_109 VGND VGND VPWR VPWR sky130_fd_sc_hd__decap_8
X_323_ clknet_3_2__leaf_clk dsa\[27\].y_out_next net33 VGND VGND VPWR VPWR dsa\[27\].y_out
+ sky130_fd_sc_hd__dfrtp_1
X_185_ dsa\[16\].y_out _093_ VGND VGND VPWR VPWR dsa\[17\].y_out_next sky130_fd_sc_hd__xnor2_1
X_254_ _018_ _019_ VGND VGND VPWR VPWR _020_ sky130_fd_sc_hd__nand2_1
XFILLER_0_10_14 VPWR VGND VPWR VGND sky130_ef_sc_hd__decap_12
XFILLER_0_19_23 VGND VGND VPWR VPWR sky130_fd_sc_hd__fill_1
XTAP_TAPCELL_ROW_0_62 VGND VPWR sky130_fd_sc_hd__tapvpwrvgnd_1
XTAP_TAPCELL_ROW_9_93 VGND VPWR sky130_fd_sc_hd__tapvpwrvgnd_1
X_168_ _079_ _080_ VGND VGND VPWR VPWR _081_ sky130_fd_sc_hd__nand2_1
XFILLER_0_21_57 VGND VGND VPWR VPWR sky130_fd_sc_hd__decap_8
XFILLER_0_21_35 VPWR VGND VPWR VGND sky130_ef_sc_hd__decap_12
X_306_ clknet_3_1__leaf_clk dsa\[19\].last_carry_next net33 VGND VGND VPWR VPWR dsa\[19\].last_carry
+ sky130_fd_sc_hd__dfrtp_1
X_237_ _005_ _006_ VGND VGND VPWR VPWR _007_ sky130_fd_sc_hd__nand2_1
XFILLER_0_30_148 VGND VGND VPWR VPWR sky130_fd_sc_hd__decap_3
XTAP_TAPCELL_ROW_6_83 VGND VPWR sky130_fd_sc_hd__tapvpwrvgnd_1
XTAP_TAPCELL_ROW_26_143 VGND VPWR sky130_fd_sc_hd__tapvpwrvgnd_1
XPHY_EDGE_ROW_1_Right_1 VGND VGND VPWR VPWR sky130_fd_sc_hd__decap_3
XFILLER_0_11_181 VGND VGND VPWR VPWR sky130_fd_sc_hd__fill_2
XFILLER_0_27_78 VGND VGND VPWR VPWR sky130_fd_sc_hd__fill_1
XFILLER_0_27_34 VGND VGND VPWR VPWR sky130_fd_sc_hd__decap_4
XFILLER_0_4_123 VPWR VGND VPWR VGND sky130_ef_sc_hd__decap_12
XTAP_TAPCELL_ROW_23_135 VGND VPWR sky130_fd_sc_hd__tapvpwrvgnd_1
XFILLER_0_7_55 VGND VGND VPWR VPWR sky130_fd_sc_hd__fill_1
XFILLER_0_1_137 VPWR VGND VPWR VGND sky130_ef_sc_hd__decap_12
XTAP_TAPCELL_ROW_20_127 VGND VPWR sky130_fd_sc_hd__tapvpwrvgnd_1
XFILLER_0_0_181 VGND VGND VPWR VPWR sky130_fd_sc_hd__fill_2
X_270_ clknet_3_7__leaf_clk dsa\[1\].last_carry_next net33 VGND VGND VPWR VPWR dsa\[1\].last_carry
+ sky130_fd_sc_hd__dfrtp_1
XFILLER_0_24_13 VPWR VGND VPWR VGND sky130_ef_sc_hd__decap_12
X_322_ clknet_3_2__leaf_clk dsa\[27\].last_carry_next net33 VGND VGND VPWR VPWR dsa\[27\].last_carry
+ sky130_fd_sc_hd__dfrtp_1
XFILLER_0_27_121 VGND VGND VPWR VPWR sky130_fd_sc_hd__fill_1
Xclkbuf_3_7__f_clk clknet_0_clk VGND VGND VPWR VPWR clknet_3_7__leaf_clk sky130_fd_sc_hd__clkbuf_16
XTAP_TAPCELL_ROW_0_63 VGND VPWR sky130_fd_sc_hd__tapvpwrvgnd_1
X_184_ _091_ _092_ VGND VGND VPWR VPWR _093_ sky130_fd_sc_hd__nand2_1
X_253_ _009_ net5 dsa\[18\].last_carry VGND VGND VPWR VPWR _019_ sky130_fd_sc_hd__nand3_1
XTAP_TAPCELL_ROW_9_94 VGND VPWR sky130_fd_sc_hd__tapvpwrvgnd_1
XFILLER_0_10_26 VGND VGND VPWR VPWR sky130_fd_sc_hd__fill_2
XFILLER_0_18_176 VGND VGND VPWR VPWR sky130_fd_sc_hd__decap_6
XFILLER_0_18_132 VGND VGND VPWR VPWR sky130_fd_sc_hd__decap_8
XPHY_EDGE_ROW_28_Left_59 VGND VGND VPWR VPWR sky130_fd_sc_hd__decap_3
XFILLER_0_24_135 VGND VGND VPWR VPWR sky130_fd_sc_hd__decap_4
XFILLER_0_24_113 VGND VGND VPWR VPWR sky130_fd_sc_hd__fill_2
X_167_ _070_ net13 dsa\[11\].last_carry VGND VGND VPWR VPWR _080_ sky130_fd_sc_hd__nand3_1
XFILLER_0_21_47 VGND VGND VPWR VPWR sky130_fd_sc_hd__decap_8
X_305_ clknet_3_1__leaf_clk dsa\[18\].y_out_next net33 VGND VGND VPWR VPWR dsa\[18\].y_out
+ sky130_fd_sc_hd__dfrtp_1
X_236_ net22 _001_ dsa\[2\].last_carry VGND VGND VPWR VPWR _006_ sky130_fd_sc_hd__nand3_1
XFILLER_0_15_113 VPWR VGND VPWR VGND sky130_ef_sc_hd__decap_12
XFILLER_0_1_57 VPWR VGND VPWR VGND sky130_ef_sc_hd__decap_12
XTAP_TAPCELL_ROW_29_152 VGND VPWR sky130_fd_sc_hd__tapvpwrvgnd_1
XFILLER_0_25_6 VPWR VGND VPWR VGND sky130_ef_sc_hd__decap_12
X_219_ dsa\[26\].y_out _069_ _071_ VGND VGND VPWR VPWR dsa\[27\].last_carry_next sky130_fd_sc_hd__a21bo_1
XTAP_TAPCELL_ROW_6_84 VGND VPWR sky130_fd_sc_hd__tapvpwrvgnd_1
XTAP_TAPCELL_ROW_26_144 VGND VPWR sky130_fd_sc_hd__tapvpwrvgnd_1
XFILLER_0_27_57 VGND VGND VPWR VPWR sky130_fd_sc_hd__decap_8
Xclkbuf_0_clk clk VGND VGND VPWR VPWR clknet_0_clk sky130_fd_sc_hd__clkbuf_16
XPHY_EDGE_ROW_24_Right_24 VGND VGND VPWR VPWR sky130_fd_sc_hd__decap_3
XTAP_TAPCELL_ROW_23_136 VGND VPWR sky130_fd_sc_hd__tapvpwrvgnd_1
XFILLER_0_23_3 VPWR VGND VPWR VGND sky130_ef_sc_hd__decap_12
XFILLER_0_17_90 VGND VGND VPWR VPWR sky130_fd_sc_hd__fill_2
XPHY_EDGE_ROW_15_Right_15 VGND VGND VPWR VPWR sky130_fd_sc_hd__decap_3
XPHY_EDGE_ROW_15_Left_46 VGND VGND VPWR VPWR sky130_fd_sc_hd__decap_3
XFILLER_0_4_135 VGND VGND VPWR VPWR sky130_fd_sc_hd__decap_4
XTAP_TAPCELL_ROW_3_74 VGND VPWR sky130_fd_sc_hd__tapvpwrvgnd_1
XFILLER_0_1_105 VGND VGND VPWR VPWR sky130_fd_sc_hd__decap_6
XFILLER_0_13_15 VPWR VGND VPWR VGND sky130_ef_sc_hd__decap_12
XFILLER_0_13_48 VGND VGND VPWR VPWR sky130_fd_sc_hd__decap_8
XFILLER_0_1_149 VPWR VGND VPWR VGND sky130_ef_sc_hd__decap_12
XFILLER_0_24_25 VGND VGND VPWR VPWR sky130_fd_sc_hd__decap_3
XFILLER_0_4_35 VPWR VGND VPWR VGND sky130_ef_sc_hd__decap_12
X_321_ clknet_3_2__leaf_clk dsa\[26\].y_out_next net33 VGND VGND VPWR VPWR dsa\[26\].y_out
+ sky130_fd_sc_hd__dfrtp_1
XTAP_TAPCELL_ROW_0_64 VGND VPWR sky130_fd_sc_hd__tapvpwrvgnd_1
X_183_ _070_ net6 dsa\[17\].last_carry VGND VGND VPWR VPWR _092_ sky130_fd_sc_hd__nand3_1
X_252_ _001_ net5 dsa\[18\].last_carry VGND VGND VPWR VPWR _018_ sky130_fd_sc_hd__a21o_1
X_235_ net22 _000_ dsa\[2\].last_carry VGND VGND VPWR VPWR _005_ sky130_fd_sc_hd__a21o_1
XPHY_EDGE_ROW_3_Left_34 VGND VGND VPWR VPWR sky130_fd_sc_hd__decap_3
X_304_ clknet_3_1__leaf_clk dsa\[18\].last_carry_next net33 VGND VGND VPWR VPWR dsa\[18\].last_carry
+ sky130_fd_sc_hd__dfrtp_1
XFILLER_0_30_106 VGND VGND VPWR VPWR sky130_fd_sc_hd__decap_3
XFILLER_0_24_158 VGND VGND VPWR VPWR sky130_fd_sc_hd__decap_4
X_166_ _062_ net13 dsa\[11\].last_carry VGND VGND VPWR VPWR _079_ sky130_fd_sc_hd__a21o_1
XFILLER_0_15_125 VPWR VGND VPWR VGND sky130_ef_sc_hd__decap_12
XFILLER_0_15_103 VGND VGND VPWR VPWR sky130_fd_sc_hd__decap_8
XFILLER_0_1_69 VPWR VGND VPWR VGND sky130_ef_sc_hd__decap_12
XTAP_TAPCELL_ROW_10_95 VGND VPWR sky130_fd_sc_hd__tapvpwrvgnd_1
XTAP_TAPCELL_ROW_29_153 VGND VPWR sky130_fd_sc_hd__tapvpwrvgnd_1
XFILLER_0_20_161 VGND VGND VPWR VPWR sky130_fd_sc_hd__fill_2
XFILLER_0_16_26 VGND VGND VPWR VPWR sky130_fd_sc_hd__fill_2
X_149_ _062_ net21 dsa\[3\].last_carry VGND VGND VPWR VPWR _066_ sky130_fd_sc_hd__a21o_1
XTAP_TAPCELL_ROW_6_85 VGND VPWR sky130_fd_sc_hd__tapvpwrvgnd_1
X_218_ dsa\[2\].y_out _066_ _067_ VGND VGND VPWR VPWR dsa\[3\].last_carry_next sky130_fd_sc_hd__a21bo_1
XFILLER_0_12_128 VPWR VGND VPWR VGND sky130_ef_sc_hd__decap_12
XFILLER_0_7_111 VGND VGND VPWR VPWR sky130_fd_sc_hd__fill_1
XTAP_TAPCELL_ROW_26_145 VGND VPWR sky130_fd_sc_hd__tapvpwrvgnd_1
XFILLER_0_16_3 VGND VGND VPWR VPWR sky130_fd_sc_hd__fill_2
XFILLER_0_7_57 VPWR VGND VPWR VGND sky130_ef_sc_hd__decap_12
XFILLER_0_13_27 VGND VGND VPWR VPWR sky130_fd_sc_hd__fill_1
XTAP_TAPCELL_ROW_3_75 VGND VPWR sky130_fd_sc_hd__tapvpwrvgnd_1
XFILLER_0_5_3 VGND VGND VPWR VPWR sky130_fd_sc_hd__decap_4
XFILLER_0_4_47 VGND VGND VPWR VPWR sky130_fd_sc_hd__decap_8
X_320_ clknet_3_2__leaf_clk dsa\[26\].last_carry_next net33 VGND VGND VPWR VPWR dsa\[26\].last_carry
+ sky130_fd_sc_hd__dfrtp_1
X_251_ dsa\[0\].y_out _017_ VGND VGND VPWR VPWR dsa\[1\].y_out_next sky130_fd_sc_hd__xnor2_1
XTAP_TAPCELL_ROW_0_65 VGND VPWR sky130_fd_sc_hd__tapvpwrvgnd_1
X_182_ _062_ net6 dsa\[17\].last_carry VGND VGND VPWR VPWR _091_ sky130_fd_sc_hd__a21o_1
XFILLER_0_10_39 VGND VGND VPWR VPWR sky130_fd_sc_hd__decap_3
X_234_ dsa\[8\].y_out _004_ VGND VGND VPWR VPWR dsa\[9\].y_out_next sky130_fd_sc_hd__xnor2_1
XFILLER_0_1_15 VPWR VGND VPWR VGND sky130_ef_sc_hd__decap_12
X_303_ clknet_3_1__leaf_clk dsa\[17\].y_out_next net33 VGND VGND VPWR VPWR dsa\[17\].y_out
+ sky130_fd_sc_hd__dfrtp_1
X_165_ dsa\[28\].y_out _078_ VGND VGND VPWR VPWR dsa\[29\].y_out_next sky130_fd_sc_hd__xnor2_1
XFILLER_0_30_118 VGND VGND VPWR VPWR sky130_fd_sc_hd__decap_3
XFILLER_0_15_137 VGND VGND VPWR VPWR sky130_fd_sc_hd__decap_8
XTAP_TAPCELL_ROW_10_96 VGND VPWR sky130_fd_sc_hd__tapvpwrvgnd_1
XTAP_TAPCELL_ROW_29_154 VGND VPWR sky130_fd_sc_hd__tapvpwrvgnd_1
X_217_ dsa\[3\].y_out _063_ _064_ VGND VGND VPWR VPWR dsa\[4\].last_carry_next sky130_fd_sc_hd__a21bo_1
X_148_ dsa\[3\].y_out _065_ VGND VGND VPWR VPWR dsa\[4\].y_out_next sky130_fd_sc_hd__xnor2_1
XFILLER_0_7_167 VGND VGND VPWR VPWR sky130_fd_sc_hd__fill_1
XFILLER_0_30_6 VGND VGND VPWR VPWR sky130_fd_sc_hd__fill_1
XFILLER_0_7_69 VPWR VGND VPWR VGND sky130_ef_sc_hd__decap_12
XFILLER_0_3_181 VGND VGND VPWR VPWR sky130_fd_sc_hd__fill_2
XPHY_EDGE_ROW_5_Right_5 VGND VGND VPWR VPWR sky130_fd_sc_hd__decap_3
XTAP_TAPCELL_ROW_3_76 VGND VPWR sky130_fd_sc_hd__tapvpwrvgnd_1
XFILLER_0_0_162 VGND VGND VPWR VPWR sky130_fd_sc_hd__decap_6
XFILLER_0_30_70 VGND VGND VPWR VPWR sky130_fd_sc_hd__decap_3
X_181_ dsa\[21\].y_out _090_ VGND VGND VPWR VPWR dsa\[22\].y_out_next sky130_fd_sc_hd__xnor2_1
X_250_ _015_ _016_ VGND VGND VPWR VPWR _017_ sky130_fd_sc_hd__nand2_1
XFILLER_0_10_29 VGND VGND VPWR VPWR sky130_fd_sc_hd__decap_3
XFILLER_0_27_113 VGND VGND VPWR VPWR sky130_fd_sc_hd__decap_8
XTAP_TAPCELL_ROW_0_66 VGND VPWR sky130_fd_sc_hd__tapvpwrvgnd_1
XFILLER_0_25_81 VPWR VGND VPWR VGND sky130_ef_sc_hd__decap_12
X_233_ _002_ _003_ VGND VGND VPWR VPWR _004_ sky130_fd_sc_hd__nand2_1
XFILLER_0_24_105 VGND VGND VPWR VPWR sky130_fd_sc_hd__decap_8
XFILLER_0_21_28 VGND VGND VPWR VPWR sky130_fd_sc_hd__fill_1
XFILLER_0_1_27 VPWR VGND VPWR VGND sky130_ef_sc_hd__decap_12
X_302_ clknet_3_1__leaf_clk dsa\[17\].last_carry_next net33 VGND VGND VPWR VPWR dsa\[17\].last_carry
+ sky130_fd_sc_hd__dfrtp_1
X_164_ _076_ _077_ VGND VGND VPWR VPWR _078_ sky130_fd_sc_hd__nand2_1
XFILLER_0_23_182 VGND VGND VPWR VPWR sky130_fd_sc_hd__fill_1
XTAP_TAPCELL_ROW_10_97 VGND VPWR sky130_fd_sc_hd__tapvpwrvgnd_1
XFILLER_0_21_119 VPWR VGND VPWR VGND sky130_ef_sc_hd__decap_12
X_216_ dsa\[25\].y_out _059_ _060_ VGND VGND VPWR VPWR dsa\[26\].last_carry_next sky130_fd_sc_hd__a21bo_1
XFILLER_0_22_93 VPWR VGND VPWR VGND sky130_ef_sc_hd__decap_12
XFILLER_0_22_82 VGND VGND VPWR VPWR sky130_fd_sc_hd__fill_2
XFILLER_0_20_141 VPWR VGND VPWR VGND sky130_ef_sc_hd__decap_12
XFILLER_0_7_113 VPWR VGND VPWR VGND sky130_ef_sc_hd__decap_12
X_147_ _063_ _064_ VGND VGND VPWR VPWR _065_ sky130_fd_sc_hd__nand2_1
XFILLER_0_11_141 VPWR VGND VPWR VGND sky130_ef_sc_hd__decap_12
XFILLER_0_7_15 VPWR VGND VPWR VGND sky130_ef_sc_hd__decap_12
XFILLER_0_17_82 VGND VGND VPWR VPWR sky130_fd_sc_hd__decap_8
XPHY_EDGE_ROW_20_Right_20 VGND VGND VPWR VPWR sky130_fd_sc_hd__decap_3
XPHY_EDGE_ROW_11_Right_11 VGND VGND VPWR VPWR sky130_fd_sc_hd__decap_3
XFILLER_0_21_3 VGND VGND VPWR VPWR sky130_fd_sc_hd__decap_8
XFILLER_0_0_141 VGND VGND VPWR VPWR sky130_fd_sc_hd__decap_4
Xclkbuf_3_2__f_clk clknet_0_clk VGND VGND VPWR VPWR clknet_3_2__leaf_clk sky130_fd_sc_hd__clkbuf_16
XFILLER_0_14_83 VGND VGND VPWR VPWR sky130_fd_sc_hd__fill_1
XFILLER_0_4_27 VGND VGND VPWR VPWR sky130_fd_sc_hd__fill_1
XFILLER_0_30_82 VGND VGND VPWR VPWR sky130_fd_sc_hd__fill_2
XFILLER_0_30_60 VGND VGND VPWR VPWR sky130_fd_sc_hd__fill_1
X_180_ _088_ _089_ VGND VGND VPWR VPWR _090_ sky130_fd_sc_hd__nand2_1
XFILLER_0_27_169 VPWR VGND VPWR VGND sky130_ef_sc_hd__decap_12
XFILLER_0_27_147 VGND VGND VPWR VPWR sky130_fd_sc_hd__fill_1
XTAP_TAPCELL_ROW_0_67 VGND VPWR sky130_fd_sc_hd__tapvpwrvgnd_1
XFILLER_0_25_93 VGND VGND VPWR VPWR sky130_fd_sc_hd__fill_1
XFILLER_0_18_125 VGND VGND VPWR VPWR sky130_fd_sc_hd__fill_1
X_232_ dsa\[9\].last_carry _001_ net15 VGND VGND VPWR VPWR _003_ sky130_fd_sc_hd__nand3_1
XFILLER_0_24_139 VGND VGND VPWR VPWR sky130_fd_sc_hd__fill_1
X_301_ clknet_3_4__leaf_clk dsa\[16\].y_out_next net33 VGND VGND VPWR VPWR dsa\[16\].y_out
+ sky130_fd_sc_hd__dfrtp_1
X_163_ _070_ net23 dsa\[29\].last_carry VGND VGND VPWR VPWR _077_ sky130_fd_sc_hd__nand3_1
XFILLER_0_23_172 VGND VGND VPWR VPWR sky130_fd_sc_hd__fill_1
XFILLER_0_1_39 VPWR VGND VPWR VGND sky130_ef_sc_hd__decap_12
XFILLER_0_11_95 VGND VGND VPWR VPWR sky130_fd_sc_hd__fill_2
XFILLER_0_16_29 VGND VGND VPWR VPWR sky130_fd_sc_hd__decap_4
XFILLER_0_14_161 VGND VGND VPWR VPWR sky130_fd_sc_hd__fill_2
XPHY_EDGE_ROW_7_Left_38 VGND VGND VPWR VPWR sky130_fd_sc_hd__decap_3
XFILLER_0_20_153 VGND VGND VPWR VPWR sky130_fd_sc_hd__decap_8
X_215_ dsa\[4\].y_out _056_ _057_ VGND VGND VPWR VPWR dsa\[5\].last_carry_next sky130_fd_sc_hd__a21bo_1
X_146_ _038_ net20 dsa\[4\].last_carry VGND VGND VPWR VPWR _064_ sky130_fd_sc_hd__nand3_1
XFILLER_0_12_109 VPWR VGND VPWR VGND sky130_ef_sc_hd__decap_12
XFILLER_0_7_125 VPWR VGND VPWR VGND sky130_ef_sc_hd__decap_12
XFILLER_0_7_169 VPWR VGND VPWR VGND sky130_ef_sc_hd__decap_12
XFILLER_0_11_153 VPWR VGND VPWR VGND sky130_ef_sc_hd__decap_12
XFILLER_0_4_139 VGND VGND VPWR VPWR sky130_fd_sc_hd__fill_1
XFILLER_0_7_27 VPWR VGND VPWR VGND sky130_ef_sc_hd__decap_12
X_129_ _038_ net18 dsa\[6\].last_carry VGND VGND VPWR VPWR _051_ sky130_fd_sc_hd__nand3_1
XFILLER_0_3_161 VGND VGND VPWR VPWR sky130_fd_sc_hd__decap_6
XTAP_TAPCELL_ROW_14_107 VGND VPWR sky130_fd_sc_hd__tapvpwrvgnd_1
XFILLER_0_14_3 VPWR VGND VPWR VGND sky130_ef_sc_hd__decap_12
XFILLER_0_24_29 VPWR VGND VPWR VGND sky130_ef_sc_hd__decap_12
XFILLER_0_30_94 VGND VGND VPWR VPWR sky130_fd_sc_hd__decap_3
XFILLER_0_3_3 VPWR VGND VPWR VGND sky130_ef_sc_hd__decap_12
XFILLER_0_25_50 VGND VGND VPWR VPWR sky130_fd_sc_hd__decap_6
X_231_ _001_ net15 dsa\[9\].last_carry VGND VGND VPWR VPWR _002_ sky130_fd_sc_hd__a21o_1
X_300_ clknet_3_4__leaf_clk dsa\[16\].last_carry_next net33 VGND VGND VPWR VPWR dsa\[16\].last_carry
+ sky130_fd_sc_hd__dfrtp_1
X_162_ _062_ net23 dsa\[29\].last_carry VGND VGND VPWR VPWR _076_ sky130_fd_sc_hd__a21o_1
XPHY_EDGE_ROW_23_Left_54 VGND VGND VPWR VPWR sky130_fd_sc_hd__decap_3
XFILLER_0_11_30 VGND VGND VPWR VPWR sky130_fd_sc_hd__decap_3
XFILLER_0_11_63 VPWR VGND VPWR VGND sky130_ef_sc_hd__decap_12
Xinput1 a[0] VGND VGND VPWR VPWR net1 sky130_fd_sc_hd__buf_1
X_214_ dsa\[27\].y_out _053_ _054_ VGND VGND VPWR VPWR dsa\[28\].last_carry_next sky130_fd_sc_hd__a21bo_1
X_145_ _062_ net20 dsa\[4\].last_carry VGND VGND VPWR VPWR _063_ sky130_fd_sc_hd__a21o_1
XFILLER_0_22_62 VPWR VGND VPWR VGND sky130_ef_sc_hd__decap_12
XFILLER_0_2_83 VGND VGND VPWR VPWR sky130_fd_sc_hd__fill_1
XFILLER_0_7_137 VPWR VGND VPWR VGND sky130_ef_sc_hd__decap_12
XFILLER_0_11_165 VGND VGND VPWR VPWR sky130_fd_sc_hd__decap_3
XTAP_TAPCELL_ROW_17_116 VGND VPWR sky130_fd_sc_hd__tapvpwrvgnd_1
X_128_ _030_ net18 dsa\[6\].last_carry VGND VGND VPWR VPWR _050_ sky130_fd_sc_hd__a21o_1
XFILLER_0_7_39 VPWR VGND VPWR VGND sky130_ef_sc_hd__decap_12
XTAP_TAPCELL_ROW_14_108 VGND VPWR sky130_fd_sc_hd__tapvpwrvgnd_1
XPHY_EDGE_ROW_10_Left_41 VGND VGND VPWR VPWR sky130_fd_sc_hd__decap_3
XPHY_EDGE_ROW_9_Right_9 VGND VGND VPWR VPWR sky130_fd_sc_hd__decap_3
XFILLER_0_28_83 VGND VGND VPWR VPWR sky130_fd_sc_hd__fill_1
XFILLER_0_5_7 VGND VGND VPWR VPWR sky130_fd_sc_hd__fill_1
XFILLER_0_8_93 VGND VGND VPWR VPWR sky130_fd_sc_hd__decap_4
XFILLER_0_14_85 VPWR VGND VPWR VGND sky130_ef_sc_hd__decap_12
XFILLER_0_18_105 VPWR VGND VPWR VGND sky130_ef_sc_hd__decap_12
XFILLER_0_17_182 VGND VGND VPWR VPWR sky130_fd_sc_hd__fill_1
X_230_ _000_ VGND VGND VPWR VPWR _001_ sky130_fd_sc_hd__clkbuf_4
X_161_ dsa\[30\].y_out _075_ VGND VGND VPWR VPWR dsa\[31\].y_out_next sky130_fd_sc_hd__xnor2_1
XFILLER_0_11_53 VGND VGND VPWR VPWR sky130_fd_sc_hd__decap_3
XFILLER_0_11_75 VPWR VGND VPWR VGND sky130_ef_sc_hd__decap_12
Xinput2 a[10] VGND VGND VPWR VPWR net2 sky130_fd_sc_hd__buf_1
XFILLER_0_14_130 VGND VGND VPWR VPWR sky130_fd_sc_hd__decap_8
X_213_ dsa\[5\].y_out _050_ _051_ VGND VGND VPWR VPWR dsa\[6\].last_carry_next sky130_fd_sc_hd__a21bo_1
X_144_ _000_ VGND VGND VPWR VPWR _062_ sky130_fd_sc_hd__clkbuf_4
XFILLER_0_22_74 VGND VGND VPWR VPWR sky130_fd_sc_hd__decap_8
XFILLER_0_7_105 VGND VGND VPWR VPWR sky130_fd_sc_hd__decap_6
XFILLER_0_7_149 VPWR VGND VPWR VGND sky130_ef_sc_hd__decap_12
XTAP_TAPCELL_ROW_17_117 VGND VPWR sky130_fd_sc_hd__tapvpwrvgnd_1
X_127_ dsa\[24\].y_out _049_ VGND VGND VPWR VPWR dsa\[25\].y_out_next sky130_fd_sc_hd__xnor2_1
XTAP_TAPCELL_ROW_22_131 VGND VPWR sky130_fd_sc_hd__tapvpwrvgnd_1
XTAP_TAPCELL_ROW_14_109 VGND VPWR sky130_fd_sc_hd__tapvpwrvgnd_1
XFILLER_0_30_52 VGND VGND VPWR VPWR sky130_fd_sc_hd__decap_4