*SPEF "ieee 1481-1999"
*DESIGN "spm"
*DATE "11:11:11 Fri 11 11, 1111"
*VENDOR "OpenRCX"
*PROGRAM "Parallel Extraction"
*VERSION "1.0"
*DESIGN_FLOW "NAME_SCOPE LOCAL" "PIN_CAP NONE"
*DIVIDER /
*DELIMITER :
*BUS_DELIMITER []
*T_UNIT 1 NS
*C_UNIT 1 PF
*R_UNIT 1 OHM
*L_UNIT 1 HENRY

*NAME_MAP
*3 a[0]
*4 a[10]
*5 a[11]
*6 a[12]
*7 a[13]
*8 a[14]
*9 a[15]
*10 a[16]
*11 a[17]
*12 a[18]
*13 a[19]
*14 a[1]
*15 a[20]
*16 a[21]
*17 a[22]
*18 a[23]
*19 a[24]
*20 a[25]
*21 a[26]
*22 a[27]
*23 a[28]
*24 a[29]
*25 a[2]
*26 a[30]
*27 a[31]
*28 a[3]
*29 a[4]
*30 a[5]
*31 a[6]
*32 a[7]
*33 a[8]
*34 a[9]
*35 clk
*36 rst
*37 x
*38 y
*39 _000_
*40 _001_
*41 _002_
*42 _003_
*43 _004_
*44 _005_
*45 _006_
*46 _007_
*47 _008_
*48 _009_
*49 _010_
*50 _011_
*51 _012_
*52 _013_
*53 _014_
*54 _015_
*55 _016_
*56 _017_
*57 _018_
*58 _019_
*59 _020_
*60 _021_
*61 _022_
*62 _023_
*63 _024_
*64 _025_
*65 _026_
*66 _027_
*67 _028_
*68 _029_
*69 _030_
*70 _031_
*71 _032_
*72 _033_
*73 _034_
*74 _035_
*75 _036_
*76 _037_
*77 _038_
*78 _039_
*79 _040_
*80 _041_
*81 _042_
*82 _043_
*83 _044_
*84 _045_
*85 _046_
*86 _047_
*87 _048_
*88 _049_
*89 _050_
*90 _051_
*91 _052_
*92 _053_
*93 _054_
*94 _055_
*95 _056_
*96 _057_
*97 _058_
*98 _059_
*99 _060_
*100 _061_
*101 _062_
*102 _063_
*103 _064_
*104 _065_
*105 _066_
*106 _067_
*107 _068_
*108 _069_
*109 _070_
*110 _071_
*111 _072_
*112 _073_
*113 _074_
*114 _075_
*115 _076_
*116 _077_
*117 _078_
*118 _079_
*119 _080_
*120 _081_
*121 _082_
*122 _083_
*123 _084_
*124 _085_
*125 _086_
*126 _087_
*127 _088_
*128 _089_
*129 _090_
*130 _091_
*131 _092_
*132 _093_
*133 _094_
*134 _095_
*135 _096_
*136 _097_
*137 _098_
*138 _099_
*139 _100_
*140 _101_
*141 clknet_0_clk
*142 clknet_3_0__leaf_clk
*143 clknet_3_1__leaf_clk
*144 clknet_3_2__leaf_clk
*145 clknet_3_3__leaf_clk
*146 clknet_3_4__leaf_clk
*147 clknet_3_5__leaf_clk
*148 clknet_3_6__leaf_clk
*149 clknet_3_7__leaf_clk
*150 dsa\[0\]\.last_carry
*151 dsa\[0\]\.last_carry_next
*152 dsa\[0\]\.y_out
*153 dsa\[0\]\.y_out_next
*154 dsa\[10\]\.last_carry
*155 dsa\[10\]\.last_carry_next
*156 dsa\[10\]\.y_in
*157 dsa\[10\]\.y_out
*158 dsa\[10\]\.y_out_next
*159 dsa\[11\]\.last_carry
*160 dsa\[11\]\.last_carry_next
*161 dsa\[11\]\.y_out
*162 dsa\[11\]\.y_out_next
*163 dsa\[12\]\.last_carry
*164 dsa\[12\]\.last_carry_next
*165 dsa\[12\]\.y_out
*166 dsa\[12\]\.y_out_next
*167 dsa\[13\]\.last_carry
*168 dsa\[13\]\.last_carry_next
*169 dsa\[13\]\.y_out
*170 dsa\[13\]\.y_out_next
*171 dsa\[14\]\.last_carry
*172 dsa\[14\]\.last_carry_next
*173 dsa\[14\]\.y_out
*174 dsa\[14\]\.y_out_next
*175 dsa\[15\]\.last_carry
*176 dsa\[15\]\.last_carry_next
*177 dsa\[15\]\.y_out
*178 dsa\[15\]\.y_out_next
*179 dsa\[16\]\.last_carry
*180 dsa\[16\]\.last_carry_next
*181 dsa\[16\]\.y_out
*182 dsa\[16\]\.y_out_next
*183 dsa\[17\]\.last_carry
*184 dsa\[17\]\.last_carry_next
*185 dsa\[17\]\.y_out
*186 dsa\[17\]\.y_out_next
*187 dsa\[18\]\.last_carry
*188 dsa\[18\]\.last_carry_next
*189 dsa\[18\]\.y_out
*190 dsa\[18\]\.y_out_next
*191 dsa\[19\]\.last_carry
*192 dsa\[19\]\.last_carry_next
*193 dsa\[19\]\.y_out
*194 dsa\[19\]\.y_out_next
*195 dsa\[1\]\.last_carry
*196 dsa\[1\]\.last_carry_next
*197 dsa\[1\]\.y_out
*198 dsa\[1\]\.y_out_next
*199 dsa\[20\]\.last_carry
*200 dsa\[20\]\.last_carry_next
*201 dsa\[20\]\.y_out
*202 dsa\[20\]\.y_out_next
*203 dsa\[21\]\.last_carry
*204 dsa\[21\]\.last_carry_next
*205 dsa\[21\]\.y_out
*206 dsa\[21\]\.y_out_next
*207 dsa\[22\]\.last_carry
*208 dsa\[22\]\.last_carry_next
*209 dsa\[22\]\.y_out
*210 dsa\[22\]\.y_out_next
*211 dsa\[23\]\.last_carry
*212 dsa\[23\]\.last_carry_next
*213 dsa\[23\]\.y_out
*214 dsa\[23\]\.y_out_next
*215 dsa\[24\]\.last_carry
*216 dsa\[24\]\.last_carry_next
*217 dsa\[24\]\.y_out
*218 dsa\[24\]\.y_out_next
*219 dsa\[25\]\.last_carry
*220 dsa\[25\]\.last_carry_next
*221 dsa\[25\]\.y_out
*222 dsa\[25\]\.y_out_next
*223 dsa\[26\]\.last_carry
*224 dsa\[26\]\.last_carry_next
*225 dsa\[26\]\.y_out
*226 dsa\[26\]\.y_out_next
*227 dsa\[27\]\.last_carry
*228 dsa\[27\]\.last_carry_next
*229 dsa\[27\]\.y_out
*230 dsa\[27\]\.y_out_next
*231 dsa\[28\]\.last_carry
*232 dsa\[28\]\.last_carry_next
*233 dsa\[28\]\.y_out
*234 dsa\[28\]\.y_out_next
*235 dsa\[29\]\.last_carry
*236 dsa\[29\]\.last_carry_next
*237 dsa\[29\]\.y_out
*238 dsa\[29\]\.y_out_next
*239 dsa\[2\]\.last_carry
*240 dsa\[2\]\.last_carry_next
*241 dsa\[2\]\.y_out
*242 dsa\[2\]\.y_out_next
*243 dsa\[30\]\.last_carry
*244 dsa\[30\]\.last_carry_next
*245 dsa\[30\]\.y_out
*246 dsa\[30\]\.y_out_next
*247 dsa\[31\]\.last_carry
*248 dsa\[31\]\.last_carry_next
*249 dsa\[31\]\.y_out_next
*250 dsa\[3\]\.last_carry
*251 dsa\[3\]\.last_carry_next
*252 dsa\[3\]\.y_out
*253 dsa\[3\]\.y_out_next
*254 dsa\[4\]\.last_carry
*255 dsa\[4\]\.last_carry_next
*256 dsa\[4\]\.y_out
*257 dsa\[4\]\.y_out_next
*258 dsa\[5\]\.last_carry
*259 dsa\[5\]\.last_carry_next
*260 dsa\[5\]\.y_out
*261 dsa\[5\]\.y_out_next
*262 dsa\[6\]\.last_carry
*263 dsa\[6\]\.last_carry_next
*264 dsa\[6\]\.y_out
*265 dsa\[6\]\.y_out_next
*266 dsa\[7\]\.last_carry
*267 dsa\[7\]\.last_carry_next
*268 dsa\[7\]\.y_out
*269 dsa\[7\]\.y_out_next
*270 dsa\[8\]\.last_carry
*271 dsa\[8\]\.last_carry_next
*272 dsa\[8\]\.y_out
*273 dsa\[8\]\.y_out_next
*274 dsa\[9\]\.last_carry
*275 dsa\[9\]\.last_carry_next
*276 dsa\[9\]\.y_out_next
*277 net1
*278 net10
*279 net11
*280 net12
*281 net13
*282 net14
*283 net15
*284 net16
*285 net17
*286 net18
*287 net19
*288 net2
*289 net20
*290 net21
*291 net22
*292 net23
*293 net24
*294 net25
*295 net26
*296 net27
*297 net28
*298 net29
*299 net3
*300 net30
*301 net31
*302 net32
*303 net33
*304 net34
*305 net35
*306 net4
*307 net5
*308 net6
*309 net7
*310 net8
*311 net9
*312 FILLER_0_0_109
*313 FILLER_0_0_113
*314 FILLER_0_0_125
*315 FILLER_0_0_137
*316 FILLER_0_0_141
*317 FILLER_0_0_145
*318 FILLER_0_0_15
*319 FILLER_0_0_162
*320 FILLER_0_0_169
*321 FILLER_0_0_181
*322 FILLER_0_0_27
*323 FILLER_0_0_29
*324 FILLER_0_0_3
*325 FILLER_0_0_41
*326 FILLER_0_0_53
*327 FILLER_0_0_57
*328 FILLER_0_0_69
*329 FILLER_0_0_81
*330 FILLER_0_0_85
*331 FILLER_0_0_97
*332 FILLER_0_10_103
*333 FILLER_0_10_111
*334 FILLER_0_10_14
*335 FILLER_0_10_148
*336 FILLER_0_10_160
*337 FILLER_0_10_181
*338 FILLER_0_10_26
*339 FILLER_0_10_29
*340 FILLER_0_10_3
*341 FILLER_0_10_39
*342 FILLER_0_10_82
*343 FILLER_0_10_91
*344 FILLER_0_10_95
*345 FILLER_0_11_104
*346 FILLER_0_11_113
*347 FILLER_0_11_129
*348 FILLER_0_11_141
*349 FILLER_0_11_15
*350 FILLER_0_11_153
*351 FILLER_0_11_165
*352 FILLER_0_11_181
*353 FILLER_0_11_22
*354 FILLER_0_11_3
*355 FILLER_0_11_30
*356 FILLER_0_11_45
*357 FILLER_0_11_53
*358 FILLER_0_11_57
*359 FILLER_0_11_63
*360 FILLER_0_11_75
*361 FILLER_0_11_87
*362 FILLER_0_11_95
*363 FILLER_0_12_109
*364 FILLER_0_12_128
*365 FILLER_0_12_181
*366 FILLER_0_12_27
*367 FILLER_0_12_29
*368 FILLER_0_12_55
*369 FILLER_0_12_64
*370 FILLER_0_12_76
*371 FILLER_0_12_85
*372 FILLER_0_12_93
*373 FILLER_0_13_100
*374 FILLER_0_13_15
*375 FILLER_0_13_153
*376 FILLER_0_13_165
*377 FILLER_0_13_181
*378 FILLER_0_13_27
*379 FILLER_0_13_3
*380 FILLER_0_13_48
*381 FILLER_0_13_57
*382 FILLER_0_14_106
*383 FILLER_0_14_118
*384 FILLER_0_14_130
*385 FILLER_0_14_138
*386 FILLER_0_14_15
*387 FILLER_0_14_161
*388 FILLER_0_14_27
*389 FILLER_0_14_29
*390 FILLER_0_14_3
*391 FILLER_0_14_37
*392 FILLER_0_14_44
*393 FILLER_0_14_65
*394 FILLER_0_14_77
*395 FILLER_0_14_83
*396 FILLER_0_14_85
*397 FILLER_0_14_97
*398 FILLER_0_15_103
*399 FILLER_0_15_111
*400 FILLER_0_15_113
*401 FILLER_0_15_125
*402 FILLER_0_15_137
*403 FILLER_0_15_153
*404 FILLER_0_15_165
*405 FILLER_0_15_175
*406 FILLER_0_15_23
*407 FILLER_0_15_45
*408 FILLER_0_15_53
*409 FILLER_0_15_63
*410 FILLER_0_15_71
*411 FILLER_0_15_81
*412 FILLER_0_15_93
*413 FILLER_0_16_118
*414 FILLER_0_16_136
*415 FILLER_0_16_141
*416 FILLER_0_16_147
*417 FILLER_0_16_161
*418 FILLER_0_16_173
*419 FILLER_0_16_181
*420 FILLER_0_16_26
*421 FILLER_0_16_29
*422 FILLER_0_16_3
*423 FILLER_0_16_33
*424 FILLER_0_16_82
*425 FILLER_0_16_88
*426 FILLER_0_17_113
*427 FILLER_0_17_137
*428 FILLER_0_17_15
*429 FILLER_0_17_150
*430 FILLER_0_17_162
*431 FILLER_0_17_176
*432 FILLER_0_17_182
*433 FILLER_0_17_23
*434 FILLER_0_17_3
*435 FILLER_0_17_35
*436 FILLER_0_17_47
*437 FILLER_0_17_55
*438 FILLER_0_17_57
*439 FILLER_0_17_69
*440 FILLER_0_17_82
*441 FILLER_0_17_90
*442 FILLER_0_18_105
*443 FILLER_0_18_117
*444 FILLER_0_18_125
*445 FILLER_0_18_132
*446 FILLER_0_18_141
*447 FILLER_0_18_15
*448 FILLER_0_18_176
*449 FILLER_0_18_182
*450 FILLER_0_18_24
*451 FILLER_0_18_29
*452 FILLER_0_18_3
*453 FILLER_0_18_41
*454 FILLER_0_18_50
*455 FILLER_0_18_62
*456 FILLER_0_18_74
*457 FILLER_0_18_82
*458 FILLER_0_18_85
*459 FILLER_0_18_97
*460 FILLER_0_19_102
*461 FILLER_0_19_110
*462 FILLER_0_19_113
*463 FILLER_0_19_165
*464 FILLER_0_19_23
*465 FILLER_0_19_55
*466 FILLER_0_19_64
*467 FILLER_0_19_76
*468 FILLER_0_1_105
*469 FILLER_0_1_111
*470 FILLER_0_1_113
*471 FILLER_0_1_125
*472 FILLER_0_1_137
*473 FILLER_0_1_149
*474 FILLER_0_1_15
*475 FILLER_0_1_161
*476 FILLER_0_1_167
*477 FILLER_0_1_169
*478 FILLER_0_1_181
*479 FILLER_0_1_27
*480 FILLER_0_1_3
*481 FILLER_0_1_39
*482 FILLER_0_1_51
*483 FILLER_0_1_55
*484 FILLER_0_1_57
*485 FILLER_0_1_69
*486 FILLER_0_1_81
*487 FILLER_0_1_93
*488 FILLER_0_20_11
*489 FILLER_0_20_125
*490 FILLER_0_20_137
*491 FILLER_0_20_141
*492 FILLER_0_20_153
*493 FILLER_0_20_161
*494 FILLER_0_20_19
*495 FILLER_0_20_27
*496 FILLER_0_20_29
*497 FILLER_0_20_3
*498 FILLER_0_20_41
*499 FILLER_0_20_46
*500 FILLER_0_20_54
*501 FILLER_0_20_77
*502 FILLER_0_20_83
*503 FILLER_0_20_85
*504 FILLER_0_20_97
*505 FILLER_0_21_11
*506 FILLER_0_21_119
*507 FILLER_0_21_131
*508 FILLER_0_21_143
*509 FILLER_0_21_155
*510 FILLER_0_21_167
*511 FILLER_0_21_169
*512 FILLER_0_21_181
*513 FILLER_0_21_20
*514 FILLER_0_21_28
*515 FILLER_0_21_3
*516 FILLER_0_21_35
*517 FILLER_0_21_47
*518 FILLER_0_21_55
*519 FILLER_0_21_57
*520 FILLER_0_21_92
*521 FILLER_0_21_96
*522 FILLER_0_22_112
*523 FILLER_0_22_118
*524 FILLER_0_22_137
*525 FILLER_0_22_141
*526 FILLER_0_22_182
*527 FILLER_0_22_27
*528 FILLER_0_22_29
*529 FILLER_0_22_62
*530 FILLER_0_22_74
*531 FILLER_0_22_82
*532 FILLER_0_22_93
*533 FILLER_0_23_100
*534 FILLER_0_23_113
*535 FILLER_0_23_117
*536 FILLER_0_23_144
*537 FILLER_0_23_15
*538 FILLER_0_23_157
*539 FILLER_0_23_165
*540 FILLER_0_23_172
*541 FILLER_0_23_178
*542 FILLER_0_23_182
*543 FILLER_0_23_20
*544 FILLER_0_23_3
*545 FILLER_0_23_32
*546 FILLER_0_23_64
*547 FILLER_0_23_70
*548 FILLER_0_24_105
*549 FILLER_0_24_113
*550 FILLER_0_24_13
*551 FILLER_0_24_135
*552 FILLER_0_24_139
*553 FILLER_0_24_141
*554 FILLER_0_24_158
*555 FILLER_0_24_162
*556 FILLER_0_24_25
*557 FILLER_0_24_29
*558 FILLER_0_24_3
*559 FILLER_0_24_41
*560 FILLER_0_24_45
*561 FILLER_0_24_56
*562 FILLER_0_24_78
*563 FILLER_0_25_110
*564 FILLER_0_25_113
*565 FILLER_0_25_129
*566 FILLER_0_25_141
*567 FILLER_0_25_151
*568 FILLER_0_25_163
*569 FILLER_0_25_167
*570 FILLER_0_25_169
*571 FILLER_0_25_178
*572 FILLER_0_25_182
*573 FILLER_0_25_38
*574 FILLER_0_25_50
*575 FILLER_0_25_57
*576 FILLER_0_25_6
*577 FILLER_0_25_69
*578 FILLER_0_25_81
*579 FILLER_0_25_93
*580 FILLER_0_25_98
*581 FILLER_0_26_121
*582 FILLER_0_26_133
*583 FILLER_0_26_139
*584 FILLER_0_26_141
*585 FILLER_0_26_153
*586 FILLER_0_26_165
*587 FILLER_0_26_177
*588 FILLER_0_26_23
*589 FILLER_0_26_27
*590 FILLER_0_26_29
*591 FILLER_0_26_42
*592 FILLER_0_26_66
*593 FILLER_0_26_74
*594 FILLER_0_26_82
*595 FILLER_0_26_85
*596 FILLER_0_26_97
*597 FILLER_0_27_106
*598 FILLER_0_27_113
*599 FILLER_0_27_121
*600 FILLER_0_27_129
*601 FILLER_0_27_141
*602 FILLER_0_27_147
*603 FILLER_0_27_169
*604 FILLER_0_27_181
*605 FILLER_0_27_22
*606 FILLER_0_27_3
*607 FILLER_0_27_34
*608 FILLER_0_27_41
*609 FILLER_0_27_53
*610 FILLER_0_27_57
*611 FILLER_0_27_65
*612 FILLER_0_27_74
*613 FILLER_0_27_78
*614 FILLER_0_28_109
*615 FILLER_0_28_11
*616 FILLER_0_28_117
*617 FILLER_0_28_134
*618 FILLER_0_28_161
*619 FILLER_0_28_24
*620 FILLER_0_28_29
*621 FILLER_0_28_3
*622 FILLER_0_28_47
*623 FILLER_0_28_59
*624 FILLER_0_28_77
*625 FILLER_0_28_83
*626 FILLER_0_28_85
*627 FILLER_0_28_97
*628 FILLER_0_29_111
*629 FILLER_0_29_139
*630 FILLER_0_29_143
*631 FILLER_0_29_165
*632 FILLER_0_29_176
*633 FILLER_0_29_29
*634 FILLER_0_29_51
*635 FILLER_0_29_55
*636 FILLER_0_29_77
*637 FILLER_0_2_109
*638 FILLER_0_2_121
*639 FILLER_0_2_133
*640 FILLER_0_2_139
*641 FILLER_0_2_141
*642 FILLER_0_2_15
*643 FILLER_0_2_153
*644 FILLER_0_2_165
*645 FILLER_0_2_177
*646 FILLER_0_2_27
*647 FILLER_0_2_29
*648 FILLER_0_2_3
*649 FILLER_0_2_41
*650 FILLER_0_2_53
*651 FILLER_0_2_65
*652 FILLER_0_2_77
*653 FILLER_0_2_83
*654 FILLER_0_2_85
*655 FILLER_0_2_97
*656 FILLER_0_30_10
*657 FILLER_0_30_100
*658 FILLER_0_30_106
*659 FILLER_0_30_113
*660 FILLER_0_30_118
*661 FILLER_0_30_124
*662 FILLER_0_30_130
*663 FILLER_0_30_136
*664 FILLER_0_30_144
*665 FILLER_0_30_148
*666 FILLER_0_30_154
*667 FILLER_0_30_16
*668 FILLER_0_30_160
*669 FILLER_0_30_166
*670 FILLER_0_30_172
*671 FILLER_0_30_178
*672 FILLER_0_30_29
*673 FILLER_0_30_34
*674 FILLER_0_30_52
*675 FILLER_0_30_6
*676 FILLER_0_30_60
*677 FILLER_0_30_64
*678 FILLER_0_30_70
*679 FILLER_0_30_76
*680 FILLER_0_30_82
*681 FILLER_0_30_88
*682 FILLER_0_30_94
*683 FILLER_0_3_105
*684 FILLER_0_3_111
*685 FILLER_0_3_113
*686 FILLER_0_3_125
*687 FILLER_0_3_137
*688 FILLER_0_3_149
*689 FILLER_0_3_15
*690 FILLER_0_3_161
*691 FILLER_0_3_167
*692 FILLER_0_3_169
*693 FILLER_0_3_181
*694 FILLER_0_3_27
*695 FILLER_0_3_3
*696 FILLER_0_3_39
*697 FILLER_0_3_51
*698 FILLER_0_3_55
*699 FILLER_0_3_57
*700 FILLER_0_3_69
*701 FILLER_0_3_81
*702 FILLER_0_3_93
*703 FILLER_0_4_111
*704 FILLER_0_4_123
*705 FILLER_0_4_135
*706 FILLER_0_4_139
*707 FILLER_0_4_141
*708 FILLER_0_4_172
*709 FILLER_0_4_180
*710 FILLER_0_4_27
*711 FILLER_0_4_35
*712 FILLER_0_4_47
*713 FILLER_0_4_55
*714 FILLER_0_4_76
*715 FILLER_0_4_92
*716 FILLER_0_5_110
*717 FILLER_0_5_120
*718 FILLER_0_5_167
*719 FILLER_0_5_176
*720 FILLER_0_5_182
*721 FILLER_0_5_3
*722 FILLER_0_5_35
*723 FILLER_0_5_57
*724 FILLER_0_5_7
*725 FILLER_0_6_103
*726 FILLER_0_6_114
*727 FILLER_0_6_118
*728 FILLER_0_6_126
*729 FILLER_0_6_138
*730 FILLER_0_6_141
*731 FILLER_0_6_161
*732 FILLER_0_6_26
*733 FILLER_0_6_32
*734 FILLER_0_6_40
*735 FILLER_0_6_49
*736 FILLER_0_6_6
*737 FILLER_0_6_61
*738 FILLER_0_6_65
*739 FILLER_0_6_72
*740 FILLER_0_6_85
*741 FILLER_0_6_97
*742 FILLER_0_7_105
*743 FILLER_0_7_111
*744 FILLER_0_7_113
*745 FILLER_0_7_125
*746 FILLER_0_7_137
*747 FILLER_0_7_149
*748 FILLER_0_7_15
*749 FILLER_0_7_161
*750 FILLER_0_7_167
*751 FILLER_0_7_169
*752 FILLER_0_7_181
*753 FILLER_0_7_27
*754 FILLER_0_7_3
*755 FILLER_0_7_39
*756 FILLER_0_7_51
*757 FILLER_0_7_55
*758 FILLER_0_7_57
*759 FILLER_0_7_69
*760 FILLER_0_7_81
*761 FILLER_0_7_93
*762 FILLER_0_8_118
*763 FILLER_0_8_130
*764 FILLER_0_8_138
*765 FILLER_0_8_161
*766 FILLER_0_8_173
*767 FILLER_0_8_181
*768 FILLER_0_8_29
*769 FILLER_0_8_3
*770 FILLER_0_8_41
*771 FILLER_0_8_65
*772 FILLER_0_8_7
*773 FILLER_0_8_93
*774 FILLER_0_8_97
*775 FILLER_0_9_103
*776 FILLER_0_9_11
*777 FILLER_0_9_111
*778 FILLER_0_9_113
*779 FILLER_0_9_137
*780 FILLER_0_9_141
*781 FILLER_0_9_153
*782 FILLER_0_9_165
*783 FILLER_0_9_169
*784 FILLER_0_9_180
*785 FILLER_0_9_23
*786 FILLER_0_9_3
*787 FILLER_0_9_49
*788 FILLER_0_9_55
*789 FILLER_0_9_57
*790 FILLER_0_9_69
*791 FILLER_0_9_91
*792 PHY_EDGE_ROW_0_Left_31
*793 PHY_EDGE_ROW_0_Right_0
*794 PHY_EDGE_ROW_10_Left_41
*795 PHY_EDGE_ROW_10_Right_10
*796 PHY_EDGE_ROW_11_Left_42
*797 PHY_EDGE_ROW_11_Right_11
*798 PHY_EDGE_ROW_12_Left_43
*799 PHY_EDGE_ROW_12_Right_12
*800 PHY_EDGE_ROW_13_Left_44
*801 PHY_EDGE_ROW_13_Right_13
*802 PHY_EDGE_ROW_14_Left_45
*803 PHY_EDGE_ROW_14_Right_14
*804 PHY_EDGE_ROW_15_Left_46
*805 PHY_EDGE_ROW_15_Right_15
*806 PHY_EDGE_ROW_16_Left_47
*807 PHY_EDGE_ROW_16_Right_16
*808 PHY_EDGE_ROW_17_Left_48
*809 PHY_EDGE_ROW_17_Right_17
*810 PHY_EDGE_ROW_18_Left_49
*811 PHY_EDGE_ROW_18_Right_18
*812 PHY_EDGE_ROW_19_Left_50
*813 PHY_EDGE_ROW_19_Right_19
*814 PHY_EDGE_ROW_1_Left_32
*815 PHY_EDGE_ROW_1_Right_1
*816 PHY_EDGE_ROW_20_Left_51
*817 PHY_EDGE_ROW_20_Right_20
*818 PHY_EDGE_ROW_21_Left_52
*819 PHY_EDGE_ROW_21_Right_21
*820 PHY_EDGE_ROW_22_Left_53
*821 PHY_EDGE_ROW_22_Right_22
*822 PHY_EDGE_ROW_23_Left_54
*823 PHY_EDGE_ROW_23_Right_23
*824 PHY_EDGE_ROW_24_Left_55
*825 PHY_EDGE_ROW_24_Right_24
*826 PHY_EDGE_ROW_25_Left_56
*827 PHY_EDGE_ROW_25_Right_25
*828 PHY_EDGE_ROW_26_Left_57
*829 PHY_EDGE_ROW_26_Right_26
*830 PHY_EDGE_ROW_27_Left_58
*831 PHY_EDGE_ROW_27_Right_27
*832 PHY_EDGE_ROW_28_Left_59
*833 PHY_EDGE_ROW_28_Right_28
*834 PHY_EDGE_ROW_29_Left_60
*835 PHY_EDGE_ROW_29_Right_29
*836 PHY_EDGE_ROW_2_Left_33
*837 PHY_EDGE_ROW_2_Right_2
*838 PHY_EDGE_ROW_30_Left_61
*839 PHY_EDGE_ROW_30_Right_30
*840 PHY_EDGE_ROW_3_Left_34
*841 PHY_EDGE_ROW_3_Right_3
*842 PHY_EDGE_ROW_4_Left_35
*843 PHY_EDGE_ROW_4_Right_4
*844 PHY_EDGE_ROW_5_Left_36
*845 PHY_EDGE_ROW_5_Right_5
*846 PHY_EDGE_ROW_6_Left_37
*847 PHY_EDGE_ROW_6_Right_6
*848 PHY_EDGE_ROW_7_Left_38
*849 PHY_EDGE_ROW_7_Right_7
*850 PHY_EDGE_ROW_8_Left_39
*851 PHY_EDGE_ROW_8_Right_8
*852 PHY_EDGE_ROW_9_Left_40
*853 PHY_EDGE_ROW_9_Right_9
*854 TAP_TAPCELL_ROW_0_62
*855 TAP_TAPCELL_ROW_0_63
*856 TAP_TAPCELL_ROW_0_64
*857 TAP_TAPCELL_ROW_0_65
*858 TAP_TAPCELL_ROW_0_66
*859 TAP_TAPCELL_ROW_0_67
*860 TAP_TAPCELL_ROW_10_95
*861 TAP_TAPCELL_ROW_10_96
*862 TAP_TAPCELL_ROW_10_97
*863 TAP_TAPCELL_ROW_11_100
*864 TAP_TAPCELL_ROW_11_98
*865 TAP_TAPCELL_ROW_11_99
*866 TAP_TAPCELL_ROW_12_101
*867 TAP_TAPCELL_ROW_12_102
*868 TAP_TAPCELL_ROW_12_103
*869 TAP_TAPCELL_ROW_13_104
*870 TAP_TAPCELL_ROW_13_105
*871 TAP_TAPCELL_ROW_13_106
*872 TAP_TAPCELL_ROW_14_107
*873 TAP_TAPCELL_ROW_14_108
*874 TAP_TAPCELL_ROW_14_109
*875 TAP_TAPCELL_ROW_15_110
*876 TAP_TAPCELL_ROW_15_111
*877 TAP_TAPCELL_ROW_15_112
*878 TAP_TAPCELL_ROW_16_113
*879 TAP_TAPCELL_ROW_16_114
*880 TAP_TAPCELL_ROW_16_115
*881 TAP_TAPCELL_ROW_17_116
*882 TAP_TAPCELL_ROW_17_117
*883 TAP_TAPCELL_ROW_17_118
*884 TAP_TAPCELL_ROW_18_119
*885 TAP_TAPCELL_ROW_18_120
*886 TAP_TAPCELL_ROW_18_121
*887 TAP_TAPCELL_ROW_19_122
*888 TAP_TAPCELL_ROW_19_123
*889 TAP_TAPCELL_ROW_19_124
*890 TAP_TAPCELL_ROW_1_68
*891 TAP_TAPCELL_ROW_1_69
*892 TAP_TAPCELL_ROW_1_70
*893 TAP_TAPCELL_ROW_20_125
*894 TAP_TAPCELL_ROW_20_126
*895 TAP_TAPCELL_ROW_20_127
*896 TAP_TAPCELL_ROW_21_128
*897 TAP_TAPCELL_ROW_21_129
*898 TAP_TAPCELL_ROW_21_130
*899 TAP_TAPCELL_ROW_22_131
*900 TAP_TAPCELL_ROW_22_132
*901 TAP_TAPCELL_ROW_22_133
*902 TAP_TAPCELL_ROW_23_134
*903 TAP_TAPCELL_ROW_23_135
*904 TAP_TAPCELL_ROW_23_136
*905 TAP_TAPCELL_ROW_24_137
*906 TAP_TAPCELL_ROW_24_138
*907 TAP_TAPCELL_ROW_24_139
*908 TAP_TAPCELL_ROW_25_140
*909 TAP_TAPCELL_ROW_25_141
*910 TAP_TAPCELL_ROW_25_142
*911 TAP_TAPCELL_ROW_26_143
*912 TAP_TAPCELL_ROW_26_144
*913 TAP_TAPCELL_ROW_26_145
*914 TAP_TAPCELL_ROW_27_146
*915 TAP_TAPCELL_ROW_27_147
*916 TAP_TAPCELL_ROW_27_148
*917 TAP_TAPCELL_ROW_28_149
*918 TAP_TAPCELL_ROW_28_150
*919 TAP_TAPCELL_ROW_28_151
*920 TAP_TAPCELL_ROW_29_152
*921 TAP_TAPCELL_ROW_29_153
*922 TAP_TAPCELL_ROW_29_154
*923 TAP_TAPCELL_ROW_2_71
*924 TAP_TAPCELL_ROW_2_72
*925 TAP_TAPCELL_ROW_2_73
*926 TAP_TAPCELL_ROW_30_155
*927 TAP_TAPCELL_ROW_30_156
*928 TAP_TAPCELL_ROW_30_157
*929 TAP_TAPCELL_ROW_30_158
*930 TAP_TAPCELL_ROW_30_159
*931 TAP_TAPCELL_ROW_30_160
*932 TAP_TAPCELL_ROW_3_74
*933 TAP_TAPCELL_ROW_3_75
*934 TAP_TAPCELL_ROW_3_76
*935 TAP_TAPCELL_ROW_4_77
*936 TAP_TAPCELL_ROW_4_78
*937 TAP_TAPCELL_ROW_4_79
*938 TAP_TAPCELL_ROW_5_80
*939 TAP_TAPCELL_ROW_5_81
*940 TAP_TAPCELL_ROW_5_82
*941 TAP_TAPCELL_ROW_6_83
*942 TAP_TAPCELL_ROW_6_84
*943 TAP_TAPCELL_ROW_6_85
*944 TAP_TAPCELL_ROW_7_86
*945 TAP_TAPCELL_ROW_7_87
*946 TAP_TAPCELL_ROW_7_88
*947 TAP_TAPCELL_ROW_8_89
*948 TAP_TAPCELL_ROW_8_90
*949 TAP_TAPCELL_ROW_8_91
*950 TAP_TAPCELL_ROW_9_92
*951 TAP_TAPCELL_ROW_9_93
*952 TAP_TAPCELL_ROW_9_94
*953 _102_
*954 _103_
*955 _104_
*956 _105_
*957 _106_
*958 _107_
*959 _108_
*960 _109_
*961 _110_
*962 _111_
*963 _112_
*964 _113_
*965 _114_
*966 _115_
*967 _116_
*968 _117_
*969 _118_
*970 _119_
*971 _120_
*972 _121_
*973 _122_
*974 _123_
*975 _124_
*976 _125_
*977 _126_
*978 _127_
*979 _128_
*980 _129_
*981 _130_
*982 _131_
*983 _132_
*984 _133_
*985 _134_
*986 _135_
*987 _136_
*988 _137_
*989 _138_
*990 _139_
*991 _140_
*992 _141_
*993 _142_
*994 _143_
*995 _144_
*996 _145_
*997 _146_
*998 _147_
*999 _148_
*1000 _149_
*1001 _150_
*1002 _151_
*1003 _152_
*1004 _153_
*1005 _154_
*1006 _155_
*1007 _156_
*1008 _157_
*1009 _158_
*1010 _159_
*1011 _160_
*1012 _161_
*1013 _162_
*1014 _163_
*1015 _164_
*1016 _165_
*1017 _166_
*1018 _167_
*1019 _168_
*1020 _169_
*1021 _170_
*1022 _171_
*1023 _172_
*1024 _173_
*1025 _174_
*1026 _175_
*1027 _176_
*1028 _177_
*1029 _178_
*1030 _179_
*1031 _180_
*1032 _181_
*1033 _182_
*1034 _183_
*1035 _184_
*1036 _185_
*1037 _186_
*1038 _187_
*1039 _188_
*1040 _189_
*1041 _190_
*1042 _191_
*1043 _192_
*1044 _193_
*1045 _194_
*1046 _195_
*1047 _196_
*1048 _197_
*1049 _198_
*1050 _199_
*1051 _200_
*1052 _201_
*1053 _202_
*1054 _203_
*1055 _204_
*1056 _205_
*1057 _206_
*1058 _207_
*1059 _208_
*1060 _209_
*1061 _210_
*1062 _211_
*1063 _212_
*1064 _213_
*1065 _214_
*1066 _215_
*1067 _216_
*1068 _217_
*1069 _218_
*1070 _219_
*1071 _220_
*1072 _221_
*1073 _222_
*1074 _223_
*1075 _224_
*1076 _225_
*1077 _226_
*1078 _227_
*1079 _228_
*1080 _229_
*1081 _230_
*1082 _231_
*1083 _232_
*1084 _233_
*1085 _234_
*1086 _235_
*1087 _236_
*1088 _237_
*1089 _238_
*1090 _239_
*1091 _240_
*1092 _241_
*1093 _242_
*1094 _243_
*1095 _244_
*1096 _245_
*1097 _246_
*1098 _247_
*1099 _248_
*1100 _249_
*1101 _250_
*1102 _251_
*1103 _252_
*1104 _253_
*1105 _254_
*1106 _255_
*1107 _256_
*1108 _257_
*1109 _258_
*1110 _259_
*1111 _260_
*1112 _261_
*1113 _262_
*1114 _263_
*1115 _264_
*1116 _265_
*1117 _266_
*1118 _267_
*1119 _268_
*1120 _269_
*1121 _270_
*1122 _271_
*1123 _272_
*1124 _273_
*1125 _274_
*1126 _275_
*1127 _276_
*1128 _277_
*1129 _278_
*1130 _279_
*1131 _280_
*1132 _281_
*1133 _282_
*1134 _283_
*1135 _284_
*1136 _285_
*1137 _286_
*1138 _287_
*1139 _288_
*1140 _289_
*1141 _290_
*1142 _291_
*1143 _292_
*1144 _293_
*1145 _294_
*1146 _295_
*1147 _296_
*1148 _297_
*1149 _298_
*1150 _299_
*1151 _300_
*1152 _301_
*1153 _302_
*1154 _303_
*1155 _304_
*1156 _305_
*1157 _306_
*1158 _307_
*1159 _308_
*1160 _309_
*1161 _310_
*1162 _311_
*1163 _312_
*1164 _313_
*1165 _314_
*1166 _315_
*1167 _316_
*1168 _317_
*1169 _318_
*1170 _319_
*1171 _320_
*1172 _321_
*1173 _322_
*1174 _323_
*1175 _324_
*1176 _325_
*1177 _326_
*1178 _327_
*1179 _328_
*1180 _329_
*1181 _330_
*1182 _331_
*1183 clkbuf_0_clk
*1184 clkbuf_3_0__f_clk
*1185 clkbuf_3_1__f_clk
*1186 clkbuf_3_2__f_clk
*1187 clkbuf_3_3__f_clk
*1188 clkbuf_3_4__f_clk
*1189 clkbuf_3_5__f_clk
*1190 clkbuf_3_6__f_clk
*1191 clkbuf_3_7__f_clk
*1192 input1
*1193 input10
*1194 input11
*1195 input12
*1196 input13
*1197 input14
*1198 input15
*1199 input16
*1200 input17
*1201 input18
*1202 input19
*1203 input2
*1204 input20
*1205 input21
*1206 input22
*1207 input23
*1208 input24
*1209 input25
*1210 input26
*1211 input27
*1212 input28
*1213 input29
*1214 input3
*1215 input30
*1216 input31
*1217 input32
*1218 input33
*1219 input34
*1220 input4
*1221 input5
*1222 input6
*1223 input7
*1224 input8
*1225 input9
*1226 output35

*PORTS
a[0] I
a[10] I
a[11] I
a[12] I
a[13] I
a[14] I
a[15] I
a[16] I
a[17] I
a[18] I
a[19] I
a[1] I
a[20] I
a[21] I
a[22] I
a[23] I
a[24] I
a[25] I
a[26] I
a[27] I
a[28] I
a[29] I
a[2] I
a[30] I
a[31] I
a[3] I
a[4] I
a[5] I
a[6] I
a[7] I
a[8] I
a[9] I
clk I
rst I
x I
y O

*D_NET *3 0.00107064
*CONN
*P a[0] I
*I *1192:A I *D sky130_fd_sc_hd__buf_1
*CAP
1 a[0] 0.00053532
2 *1192:A 0.00053532
3 *1192:A *1195:A 0
*RES
1 a[0] *1192:A 12.825 
*END

*D_NET *4 0.000996812
*CONN
*P a[10] I
*I *1203:A I *D sky130_fd_sc_hd__buf_1
*CAP
1 a[10] 0.000484645
2 *1203:A 0.000484645
3 *1203:A *1214:A 0
4 *1203:A *1217:A 0
5 *1203:A *300:10 2.75229e-05
*RES
1 a[10] *1203:A 12.135 
*END

*D_NET *5 0.00103011
*CONN
*P a[11] I
*I *1214:A I *D sky130_fd_sc_hd__buf_1
*CAP
1 a[11] 0.000476393
2 *1214:A 0.000476393
3 *1214:A *1220:A 0
4 *1214:A *300:10 7.73272e-05
5 *1203:A *1214:A 0
*RES
1 a[11] *1214:A 12.135 
*END

*D_NET *6 0.00108017
*CONN
*P a[12] I
*I *1220:A I *D sky130_fd_sc_hd__buf_1
*CAP
1 a[12] 0.000540083
2 *1220:A 0.000540083
3 *1220:A *1221:A 0
4 *1220:A *300:10 0
5 *1214:A *1220:A 0
*RES
1 a[12] *1220:A 12.825 
*END

*D_NET *7 0.000968085
*CONN
*P a[13] I
*I *1221:A I *D sky130_fd_sc_hd__buf_1
*CAP
1 a[13] 0.000484042
2 *1221:A 0.000484042
3 *1221:A *1222:A 0
4 *1220:A *1221:A 0
*RES
1 a[13] *1221:A 12.135 
*END

*D_NET *8 0.000996921
*CONN
*P a[14] I
*I *1222:A I *D sky130_fd_sc_hd__buf_1
*CAP
1 a[14] 0.000485034
2 *1222:A 0.000485034
3 *1222:A *1223:A 0
4 *1222:A *307:16 2.68526e-05
5 *1221:A *1222:A 0
*RES
1 a[14] *1222:A 12.135 
*END

*D_NET *9 0.00101058
*CONN
*P a[15] I
*I *1223:A I *D sky130_fd_sc_hd__buf_1
*CAP
1 a[15] 0.000478292
2 *1223:A 0.000478292
3 *1223:A *1224:A 0
4 *1223:A *307:16 5.39961e-05
5 *1222:A *1223:A 0
*RES
1 a[15] *1223:A 12.135 
*END

*D_NET *10 0.001009
*CONN
*P a[16] I
*I *1224:A I *D sky130_fd_sc_hd__buf_1
*CAP
1 a[16] 0.000480353
2 *1224:A 0.000480353
3 *1224:A *1225:A 0
4 *1224:A *309:14 4.82919e-05
5 *1223:A *1224:A 0
*RES
1 a[16] *1224:A 12.135 
*END

*D_NET *11 0.00105775
*CONN
*P a[17] I
*I *1225:A I *D sky130_fd_sc_hd__buf_1
*CAP
1 a[17] 0.000468211
2 *1225:A 0.000468211
3 *1225:A *1193:A 0
4 *1225:A *279:10 7.47215e-05
5 *1225:A *309:14 4.66108e-05
6 *1224:A *1225:A 0
*RES
1 a[17] *1225:A 12.135 
*END

*D_NET *12 0.00104609
*CONN
*P a[18] I
*I *1193:A I *D sky130_fd_sc_hd__buf_1
*CAP
1 a[18] 0.000473917
2 *1193:A 0.000473917
3 *1193:A *1194:A 0
4 *1193:A *279:10 0
5 *1193:A *283:10 0
6 *1193:A *309:14 4.82919e-05
7 *1193:A *311:18 4.99619e-05
8 *1225:A *1193:A 0
*RES
1 a[18] *1193:A 12.135 
*END

*D_NET *13 0.00123058
*CONN
*P a[19] I
*I *1194:A I *D sky130_fd_sc_hd__buf_1
*CAP
1 a[19] 0.000475619
2 *1194:A 0.000475619
3 *1194:A *1196:A 0
4 *1194:A *283:10 2.78732e-05
5 *1194:A *309:14 0.0001249
6 *1194:A *311:18 0.00012657
7 *1193:A *1194:A 0
*RES
1 a[19] *1194:A 12.825 
*END

*D_NET *14 0.000982861
*CONN
*P a[1] I
*I *1195:A I *D sky130_fd_sc_hd__buf_1
*CAP
1 a[1] 0.00049143
2 *1195:A 0.00049143
3 *1195:A *1207:A 0
4 *1192:A *1195:A 0
*RES
1 a[1] *1195:A 12.135 
*END

*D_NET *15 0.00122305
*CONN
*P a[20] I
*I *1196:A I *D sky130_fd_sc_hd__buf_1
*CAP
1 a[20] 0.000485792
2 *1196:A 0.000485792
3 *1196:A *1197:A 0
4 *1196:A *309:14 0.0001249
5 *1196:A *311:18 0.00012657
6 *1194:A *1196:A 0
*RES
1 a[20] *1196:A 12.825 
*END

*D_NET *16 0.00103903
*CONN
*P a[21] I
*I *1197:A I *D sky130_fd_sc_hd__buf_1
*CAP
1 a[21] 0.000463829
2 *1197:A 0.000463829
3 *1197:A *1198:A 0
4 *1197:A *283:10 2.75229e-05
5 *1197:A *309:14 3.09164e-05
6 *1197:A *311:18 5.2932e-05
7 *1196:A *1197:A 0
*RES
1 a[21] *1197:A 12.135 
*END

*D_NET *17 0.0010871
*CONN
*P a[22] I
*I *1198:A I *D sky130_fd_sc_hd__buf_1
*CAP
1 a[22] 0.000527695
2 *1198:A 0.000527695
3 *1198:A *1199:A 0
4 *1198:A *283:10 2.75229e-05
5 *1198:A *311:18 4.18603e-06
6 *1197:A *1198:A 0
*RES
1 a[22] *1198:A 12.825 
*END

*D_NET *18 0.00117812
*CONN
*P a[23] I
*I *1199:A I *D sky130_fd_sc_hd__buf_1
*CAP
1 a[23] 0.000589059
2 *1199:A 0.000589059
3 *1199:A *1200:A 0
4 *1198:A *1199:A 0
*RES
1 a[23] *1199:A 13.515 
*END

*D_NET *19 0.000982277
*CONN
*P a[24] I
*I *1200:A I *D sky130_fd_sc_hd__clkbuf_1
*CAP
1 a[24] 0.000491139
2 *1200:A 0.000491139
3 *1200:A *1201:A 0
4 *1199:A *1200:A 0
*RES
1 a[24] *1200:A 12.135 
*END

*D_NET *20 0.000983801
*CONN
*P a[25] I
*I *1201:A I *D sky130_fd_sc_hd__buf_1
*CAP
1 a[25] 0.0004919
2 *1201:A 0.0004919
3 *1201:A *1202:A 0
4 *1200:A *1201:A 0
*RES
1 a[25] *1201:A 12.135 
*END

*D_NET *21 0.000982277
*CONN
*P a[26] I
*I *1202:A I *D sky130_fd_sc_hd__buf_1
*CAP
1 a[26] 0.000491139
2 *1202:A 0.000491139
3 *1202:A *1204:A 0
4 *1201:A *1202:A 0
*RES
1 a[26] *1202:A 12.135 
*END

*D_NET *22 0.00107641
*CONN
*P a[27] I
*I *1204:A I *D sky130_fd_sc_hd__buf_1
*CAP
1 a[27] 0.000538204
2 *1204:A 0.000538204
3 *1204:A *1205:A 0
4 *1202:A *1204:A 0
*RES
1 a[27] *1204:A 12.825 
*END

*D_NET *23 0.00107641
*CONN
*P a[28] I
*I *1205:A I *D sky130_fd_sc_hd__buf_1
*CAP
1 a[28] 0.000538204
2 *1205:A 0.000538204
3 *1205:A *1206:A 0
4 *1204:A *1205:A 0
*RES
1 a[28] *1205:A 12.825 
*END

*D_NET *24 0.000979092
*CONN
*P a[29] I
*I *1206:A I *D sky130_fd_sc_hd__buf_1
*CAP
1 a[29] 0.000489546
2 *1206:A 0.000489546
3 *1206:A *1208:A 0
4 *1205:A *1206:A 0
*RES
1 a[29] *1206:A 12.135 
*END

*D_NET *25 0.000975428
*CONN
*P a[2] I
*I *1207:A I *D sky130_fd_sc_hd__buf_1
*CAP
1 a[2] 0.000487714
2 *1207:A 0.000487714
3 *1207:A *992:A 0
4 *1207:A *1210:A 0
5 *1195:A *1207:A 0
*RES
1 a[2] *1207:A 12.135 
*END

*D_NET *26 0.000912143
*CONN
*P a[30] I
*I *1208:A I *D sky130_fd_sc_hd__buf_1
*CAP
1 a[30] 0.000456071
2 *1208:A 0.000456071
3 *1208:A *1209:A 0
4 *1206:A *1208:A 0
*RES
1 a[30] *1208:A 11.685 
*END

*D_NET *27 0.00133026
*CONN
*P a[31] I
*I *1209:A I *D sky130_fd_sc_hd__clkbuf_1
*CAP
1 a[31] 0.000665128
2 *1209:A 0.000665128
3 *1209:A *293:12 0
4 *1208:A *1209:A 0
*RES
1 a[31] *1209:A 15.06 
*END

*D_NET *28 0.00151971
*CONN
*P a[3] I
*I *1210:A I *D sky130_fd_sc_hd__buf_1
*CAP
1 a[3] 0.000480474
2 *1210:A 0.000480474
3 *1210:A *991:A2 0
4 *1210:A *992:A 0.000132592
5 *1210:A *992:B 1.46563e-06
6 *1210:A *992:C 0
7 *1210:A *1211:A 0.000410072
8 *1210:A *99:10 9.09788e-06
9 *1210:A *295:10 5.53249e-06
10 *1207:A *1210:A 0
*RES
1 a[3] *1210:A 15.54 
*END

*D_NET *29 0.00112742
*CONN
*P a[4] I
*I *1211:A I *D sky130_fd_sc_hd__buf_1
*CAP
1 a[4] 0.000358672
2 *1211:A 0.000358672
3 *1211:A *991:A2 0
4 *1211:A *1212:A 0
5 *1210:A *1211:A 0.000410072
*RES
1 a[4] *1211:A 12.135 
*END

*D_NET *30 0.00120488
*CONN
*P a[5] I
*I *1212:A I *D sky130_fd_sc_hd__clkbuf_1
*CAP
1 a[5] 0.000487523
2 *1212:A 0.000487523
3 *1212:A *991:A2 1.70935e-05
4 *1212:A *992:A 0.00013521
5 *1212:A *1213:A 0
6 *1212:A *292:16 3.09179e-05
7 *1212:A *297:8 4.66108e-05
8 *1211:A *1212:A 0
*RES
1 a[5] *1212:A 12.825 
*END
