* NGSPICE file created from dff_ram_8x72.ext - technology: sky130A

* Black-box entry subcircuit for sky130_fd_sc_hd__mux2_1 abstract view
.subckt sky130_fd_sc_hd__mux2_1 A0 A1 S VGND VNB VPB VPWR X
.ends

* Black-box entry subcircuit for sky130_fd_sc_hd__clkbuf_1 abstract view
.subckt sky130_fd_sc_hd__clkbuf_1 A VGND VNB VPB VPWR X
.ends

* Black-box entry subcircuit for sky130_fd_sc_hd__fill_1 abstract view
.subckt sky130_fd_sc_hd__fill_1 VGND VNB VPB VPWR
.ends

* Black-box entry subcircuit for sky130_ef_sc_hd__decap_12 abstract view
.subckt sky130_ef_sc_hd__decap_12 VPWR VGND VPB VNB
.ends

* Black-box entry subcircuit for sky130_fd_sc_hd__dfxtp_1 abstract view
.subckt sky130_fd_sc_hd__dfxtp_1 CLK D VGND VNB VPB VPWR Q
.ends

* Black-box entry subcircuit for sky130_fd_sc_hd__fill_2 abstract view
.subckt sky130_fd_sc_hd__fill_2 VGND VNB VPB VPWR
.ends

* Black-box entry subcircuit for sky130_fd_sc_hd__decap_4 abstract view
.subckt sky130_fd_sc_hd__decap_4 VGND VNB VPB VPWR
.ends

* Black-box entry subcircuit for sky130_fd_sc_hd__decap_3 abstract view
.subckt sky130_fd_sc_hd__decap_3 VGND VNB VPB VPWR
.ends

* Black-box entry subcircuit for sky130_fd_sc_hd__dlygate4sd3_1 abstract view
.subckt sky130_fd_sc_hd__dlygate4sd3_1 A VGND VNB VPB VPWR X
.ends

* Black-box entry subcircuit for sky130_fd_sc_hd__tapvpwrvgnd_1 abstract view
.subckt sky130_fd_sc_hd__tapvpwrvgnd_1 VGND VPWR
.ends

* Black-box entry subcircuit for sky130_fd_sc_hd__decap_6 abstract view
.subckt sky130_fd_sc_hd__decap_6 VGND VNB VPB VPWR
.ends

* Black-box entry subcircuit for sky130_fd_sc_hd__a221o_1 abstract view
.subckt sky130_fd_sc_hd__a221o_1 A1 A2 B1 B2 C1 VGND VNB VPB VPWR X
.ends

* Black-box entry subcircuit for sky130_fd_sc_hd__a22o_1 abstract view
.subckt sky130_fd_sc_hd__a22o_1 A1 A2 B1 B2 VGND VNB VPB VPWR X
.ends

* Black-box entry subcircuit for sky130_fd_sc_hd__mux4_1 abstract view
.subckt sky130_fd_sc_hd__mux4_1 A0 A1 A2 A3 S0 S1 VGND VNB VPB VPWR X
.ends

* Black-box entry subcircuit for sky130_fd_sc_hd__buf_4 abstract view
.subckt sky130_fd_sc_hd__buf_4 A VGND VNB VPB VPWR X
.ends

* Black-box entry subcircuit for sky130_fd_sc_hd__decap_8 abstract view
.subckt sky130_fd_sc_hd__decap_8 VGND VNB VPB VPWR
.ends

* Black-box entry subcircuit for sky130_fd_sc_hd__o22a_1 abstract view
.subckt sky130_fd_sc_hd__o22a_1 A1 A2 B1 B2 VGND VNB VPB VPWR X
.ends

* Black-box entry subcircuit for sky130_fd_sc_hd__buf_1 abstract view
.subckt sky130_fd_sc_hd__buf_1 A VGND VNB VPB VPWR X
.ends

* Black-box entry subcircuit for sky130_fd_sc_hd__diode_2 abstract view
.subckt sky130_fd_sc_hd__diode_2 DIODE VGND VNB VPB VPWR
.ends

* Black-box entry subcircuit for sky130_fd_sc_hd__clkbuf_4 abstract view
.subckt sky130_fd_sc_hd__clkbuf_4 A VGND VNB VPB VPWR X
.ends

* Black-box entry subcircuit for sky130_fd_sc_hd__clkbuf_16 abstract view
.subckt sky130_fd_sc_hd__clkbuf_16 A VGND VNB VPB VPWR X
.ends

* Black-box entry subcircuit for sky130_fd_sc_hd__clkbuf_8 abstract view
.subckt sky130_fd_sc_hd__clkbuf_8 A VGND VNB VPB VPWR X
.ends

* Black-box entry subcircuit for sky130_fd_sc_hd__and3_1 abstract view
.subckt sky130_fd_sc_hd__and3_1 A B C VGND VNB VPB VPWR X
.ends

* Black-box entry subcircuit for sky130_fd_sc_hd__clkbuf_2 abstract view
.subckt sky130_fd_sc_hd__clkbuf_2 A VGND VNB VPB VPWR X
.ends

* Black-box entry subcircuit for sky130_fd_sc_hd__a21o_1 abstract view
.subckt sky130_fd_sc_hd__a21o_1 A1 A2 B1 VGND VNB VPB VPWR X
.ends

* Black-box entry subcircuit for sky130_fd_sc_hd__and2b_1 abstract view
.subckt sky130_fd_sc_hd__and2b_1 A_N B VGND VNB VPB VPWR X
.ends

* Black-box entry subcircuit for sky130_fd_sc_hd__nor2_2 abstract view
.subckt sky130_fd_sc_hd__nor2_2 A B VGND VNB VPB VPWR Y
.ends

* Black-box entry subcircuit for sky130_fd_sc_hd__and2_1 abstract view
.subckt sky130_fd_sc_hd__and2_1 A B VGND VNB VPB VPWR X
.ends

* Black-box entry subcircuit for sky130_fd_sc_hd__or3b_1 abstract view
.subckt sky130_fd_sc_hd__or3b_1 A B C_N VGND VNB VPB VPWR X
.ends

* Black-box entry subcircuit for sky130_fd_sc_hd__or4b_1 abstract view
.subckt sky130_fd_sc_hd__or4b_1 A B C D_N VGND VNB VPB VPWR X
.ends

* Black-box entry subcircuit for sky130_fd_sc_hd__o32a_1 abstract view
.subckt sky130_fd_sc_hd__o32a_1 A1 A2 A3 B1 B2 VGND VNB VPB VPWR X
.ends

* Black-box entry subcircuit for sky130_fd_sc_hd__buf_2 abstract view
.subckt sky130_fd_sc_hd__buf_2 A VGND VNB VPB VPWR X
.ends

* Black-box entry subcircuit for sky130_fd_sc_hd__and3b_1 abstract view
.subckt sky130_fd_sc_hd__and3b_1 A_N B C VGND VNB VPB VPWR X
.ends

* Black-box entry subcircuit for sky130_fd_sc_hd__dlymetal6s2s_1 abstract view
.subckt sky130_fd_sc_hd__dlymetal6s2s_1 A VGND VNB VPB VPWR X
.ends

* Black-box entry subcircuit for sky130_fd_sc_hd__or2b_1 abstract view
.subckt sky130_fd_sc_hd__or2b_1 A B_N VGND VNB VPB VPWR X
.ends

* Black-box entry subcircuit for sky130_fd_sc_hd__nand2_4 abstract view
.subckt sky130_fd_sc_hd__nand2_4 A B VGND VNB VPB VPWR Y
.ends

* Black-box entry subcircuit for sky130_fd_sc_hd__buf_8 abstract view
.subckt sky130_fd_sc_hd__buf_8 A VGND VNB VPB VPWR X
.ends

* Black-box entry subcircuit for sky130_fd_sc_hd__or4_1 abstract view
.subckt sky130_fd_sc_hd__or4_1 A B C D VGND VNB VPB VPWR X
.ends

* Black-box entry subcircuit for sky130_fd_sc_hd__and4bb_1 abstract view
.subckt sky130_fd_sc_hd__and4bb_1 A_N B_N C D VGND VNB VPB VPWR X
.ends

* Black-box entry subcircuit for sky130_fd_sc_hd__buf_6 abstract view
.subckt sky130_fd_sc_hd__buf_6 A VGND VNB VPB VPWR X
.ends

.subckt dff_ram_8x72 VGND VPWR address[0] address[1] address[2] clk rdata[0] rdata[10]
+ rdata[11] rdata[12] rdata[13] rdata[14] rdata[15] rdata[16] rdata[17] rdata[18]
+ rdata[19] rdata[1] rdata[20] rdata[21] rdata[22] rdata[23] rdata[24] rdata[25] rdata[26]
+ rdata[27] rdata[28] rdata[29] rdata[2] rdata[30] rdata[31] rdata[32] rdata[33] rdata[34]
+ rdata[35] rdata[36] rdata[37] rdata[38] rdata[39] rdata[3] rdata[40] rdata[41] rdata[42]
+ rdata[43] rdata[44] rdata[45] rdata[46] rdata[47] rdata[48] rdata[49] rdata[4] rdata[50]
+ rdata[51] rdata[52] rdata[53] rdata[54] rdata[55] rdata[56] rdata[57] rdata[58]
+ rdata[59] rdata[5] rdata[60] rdata[61] rdata[62] rdata[63] rdata[64] rdata[65] rdata[66]
+ rdata[67] rdata[68] rdata[69] rdata[6] rdata[70] rdata[71] rdata[7] rdata[8] rdata[9]
+ wdata[0] wdata[10] wdata[11] wdata[12] wdata[13] wdata[14] wdata[15] wdata[16] wdata[17]
+ wdata[18] wdata[19] wdata[1] wdata[20] wdata[21] wdata[22] wdata[23] wdata[24] wdata[25]
+ wdata[26] wdata[27] wdata[28] wdata[29] wdata[2] wdata[30] wdata[31] wdata[32] wdata[33]
+ wdata[34] wdata[35] wdata[36] wdata[37] wdata[38] wdata[39] wdata[3] wdata[40] wdata[41]
+ wdata[42] wdata[43] wdata[44] wdata[45] wdata[46] wdata[47] wdata[48] wdata[49]
+ wdata[4] wdata[50] wdata[51] wdata[52] wdata[53] wdata[54] wdata[55] wdata[56] wdata[57]
+ wdata[58] wdata[59] wdata[5] wdata[60] wdata[61] wdata[62] wdata[63] wdata[64] wdata[65]
+ wdata[66] wdata[67] wdata[68] wdata[69] wdata[6] wdata[70] wdata[71] wdata[7] wdata[8]
+ wdata[9] wr_n
X_3155_ net769 net21 _1519_ VGND VGND VPWR VPWR _1525_ sky130_fd_sc_hd__mux2_1
X_3086_ net65 net954 _1482_ VGND VGND VPWR VPWR _1488_ sky130_fd_sc_hd__mux2_1
X_2106_ _0858_ VGND VGND VPWR VPWR _0044_ sky130_fd_sc_hd__clkbuf_1
X_2037_ net488 net41 _0817_ VGND VGND VPWR VPWR _0821_ sky130_fd_sc_hd__mux2_1
XFILLER_0_76_122 VGND VGND VPWR VPWR sky130_fd_sc_hd__fill_1
XFILLER_0_64_317 VPWR VGND VPWR VGND sky130_ef_sc_hd__decap_12
X_3988_ clknet_leaf_33_clk _0214_ VGND VGND VPWR VPWR instance_1.rdata\[28\] sky130_fd_sc_hd__dfxtp_1
XFILLER_0_17_233 VGND VGND VPWR VPWR sky130_fd_sc_hd__fill_2
XFILLER_0_9_499 VGND VGND VPWR VPWR sky130_fd_sc_hd__decap_4
X_2939_ net68 net817 _1401_ VGND VGND VPWR VPWR _1410_ sky130_fd_sc_hd__mux2_1
XFILLER_0_13_461 VGND VGND VPWR VPWR sky130_fd_sc_hd__fill_2
XFILLER_0_4_193 VGND VGND VPWR VPWR sky130_fd_sc_hd__decap_3
Xhold340 instance_1.mem\[1\]\[43\] VGND VGND VPWR VPWR net488 sky130_fd_sc_hd__dlygate4sd3_1
Xhold351 instance_0.rdata\[50\] VGND VGND VPWR VPWR net499 sky130_fd_sc_hd__dlygate4sd3_1
Xhold362 instance_1.mem\[3\]\[16\] VGND VGND VPWR VPWR net510 sky130_fd_sc_hd__dlygate4sd3_1
XFILLER_0_7_81 VPWR VGND VPWR VGND sky130_ef_sc_hd__decap_12
Xhold395 instance_1.mem\[0\]\[69\] VGND VGND VPWR VPWR net543 sky130_fd_sc_hd__dlygate4sd3_1
Xhold384 instance_1.rdata\[10\] VGND VGND VPWR VPWR net532 sky130_fd_sc_hd__dlygate4sd3_1
Xhold373 instance_1.mem\[3\]\[6\] VGND VGND VPWR VPWR net521 sky130_fd_sc_hd__dlygate4sd3_1
XFILLER_0_40_291 VGND VGND VPWR VPWR sky130_fd_sc_hd__fill_1
XTAP_TAPCELL_ROW_56_721 VGND VPWR sky130_fd_sc_hd__tapvpwrvgnd_1
XTAP_TAPCELL_ROW_28_456 VGND VPWR sky130_fd_sc_hd__tapvpwrvgnd_1
XFILLER_0_67_155 VPWR VGND VPWR VGND sky130_ef_sc_hd__decap_12
XFILLER_0_70_309 VPWR VGND VPWR VGND sky130_ef_sc_hd__decap_12
XTAP_TAPCELL_ROW_11_301 VGND VPWR sky130_fd_sc_hd__tapvpwrvgnd_1
XFILLER_0_36_531 VGND VGND VPWR VPWR sky130_fd_sc_hd__fill_1
XFILLER_0_48_391 VGND VGND VPWR VPWR sky130_fd_sc_hd__decap_6
XFILLER_0_23_203 VPWR VGND VPWR VGND sky130_ef_sc_hd__decap_12
XFILLER_0_51_501 VGND VGND VPWR VPWR sky130_fd_sc_hd__decap_3
XFILLER_0_23_225 VGND VGND VPWR VPWR sky130_fd_sc_hd__decap_6
XFILLER_0_48_26 VGND VGND VPWR VPWR sky130_fd_sc_hd__fill_2
XFILLER_0_48_37 VGND VGND VPWR VPWR sky130_fd_sc_hd__decap_4
XFILLER_0_48_59 VPWR VGND VPWR VGND sky130_ef_sc_hd__decap_12
XFILLER_0_3_39 VPWR VGND VPWR VGND sky130_ef_sc_hd__decap_12
XFILLER_0_58_133 VGND VGND VPWR VPWR sky130_fd_sc_hd__fill_1
XFILLER_0_86_464 VPWR VGND VPWR VGND sky130_ef_sc_hd__decap_12
X_3911_ clknet_leaf_37_clk net236 VGND VGND VPWR VPWR instance_0.rdata\[23\] sky130_fd_sc_hd__dfxtp_1
X_3842_ clknet_leaf_33_clk _0068_ VGND VGND VPWR VPWR instance_0.mem\[0\]\[26\] sky130_fd_sc_hd__dfxtp_1
XTAP_TAPCELL_ROW_62_779 VGND VPWR sky130_fd_sc_hd__tapvpwrvgnd_1
X_3773_ _1850_ VGND VGND VPWR VPWR _0719_ sky130_fd_sc_hd__clkbuf_1
XFILLER_0_81_180 VGND VGND VPWR VPWR sky130_fd_sc_hd__fill_1
X_2724_ instance_1.mem\[1\]\[49\] _1102_ _0957_ instance_1.mem\[3\]\[49\] _1263_ VGND
+ VGND VPWR VPWR _1286_ sky130_fd_sc_hd__a221o_1
X_2655_ instance_1.mem\[3\]\[29\] _1184_ _1197_ instance_1.mem\[2\]\[29\] VGND VGND
+ VPWR VPWR _1237_ sky130_fd_sc_hd__a22o_1
X_4325_ clknet_leaf_53_clk _0551_ VGND VGND VPWR VPWR instance_0.mem\[3\]\[5\] sky130_fd_sc_hd__dfxtp_1
X_2586_ instance_1.mem\[0\]\[10\] instance_1.mem\[1\]\[10\] instance_1.mem\[2\]\[10\]
+ instance_1.mem\[3\]\[10\] _1082_ _1130_ VGND VGND VPWR VPWR _1187_ sky130_fd_sc_hd__mux4_1
XFILLER_0_10_475 VGND VGND VPWR VPWR sky130_fd_sc_hd__fill_1
XFILLER_0_10_497 VPWR VGND VPWR VGND sky130_ef_sc_hd__decap_12
X_4256_ clknet_leaf_51_clk _0482_ VGND VGND VPWR VPWR instance_1.mem\[2\]\[8\] sky130_fd_sc_hd__dfxtp_1
X_4187_ clknet_leaf_49_clk _0413_ VGND VGND VPWR VPWR instance_1.mem\[3\]\[11\] sky130_fd_sc_hd__dfxtp_1
X_3207_ _1496_ VGND VGND VPWR VPWR _1552_ sky130_fd_sc_hd__buf_4
X_3138_ net677 net12 _1508_ VGND VGND VPWR VPWR _1516_ sky130_fd_sc_hd__mux2_1
XFILLER_0_69_409 VGND VGND VPWR VPWR sky130_fd_sc_hd__fill_1
XFILLER_0_49_122 VPWR VGND VPWR VGND sky130_ef_sc_hd__decap_12
X_3069_ net56 net632 _1471_ VGND VGND VPWR VPWR _1479_ sky130_fd_sc_hd__mux2_1
XFILLER_0_49_166 VGND VGND VPWR VPWR sky130_fd_sc_hd__fill_2
XFILLER_0_60_320 VGND VGND VPWR VPWR sky130_fd_sc_hd__fill_1
Xhold170 _0242_ VGND VGND VPWR VPWR net318 sky130_fd_sc_hd__dlygate4sd3_1
Xhold192 _0188_ VGND VGND VPWR VPWR net340 sky130_fd_sc_hd__dlygate4sd3_1
Xhold181 instance_1.rdata\[24\] VGND VGND VPWR VPWR net329 sky130_fd_sc_hd__dlygate4sd3_1
XFILLER_0_18_29 VGND VGND VPWR VPWR sky130_fd_sc_hd__decap_8
XFILLER_0_87_239 VGND VGND VPWR VPWR sky130_fd_sc_hd__fill_1
XFILLER_0_83_401 VGND VGND VPWR VPWR sky130_fd_sc_hd__decap_4
XFILLER_0_68_475 VGND VGND VPWR VPWR sky130_fd_sc_hd__fill_1
XFILLER_0_3_417 VGND VGND VPWR VPWR sky130_fd_sc_hd__decap_8
XFILLER_0_11_206 VGND VGND VPWR VPWR sky130_fd_sc_hd__decap_6
X_2440_ _1079_ VGND VGND VPWR VPWR _0157_ sky130_fd_sc_hd__clkbuf_1
X_2371_ net363 _1024_ _1027_ _1029_ VGND VGND VPWR VPWR _0138_ sky130_fd_sc_hd__o22a_1
XFILLER_0_75_13 VGND VGND VPWR VPWR sky130_fd_sc_hd__fill_1
X_4110_ clknet_leaf_55_clk _0336_ VGND VGND VPWR VPWR instance_0.mem\[2\]\[6\] sky130_fd_sc_hd__dfxtp_1
X_4041_ clknet_leaf_50_clk _0267_ VGND VGND VPWR VPWR instance_0.mem\[1\]\[9\] sky130_fd_sc_hd__dfxtp_1
XTAP_TAPCELL_ROW_67_827 VGND VPWR sky130_fd_sc_hd__tapvpwrvgnd_1
XTAP_TAPCELL_ROW_22_407 VGND VPWR sky130_fd_sc_hd__tapvpwrvgnd_1
X_3825_ clknet_leaf_50_clk _0051_ VGND VGND VPWR VPWR instance_0.mem\[0\]\[9\] sky130_fd_sc_hd__dfxtp_1
X_3756_ net724 net17 _1838_ VGND VGND VPWR VPWR _1842_ sky130_fd_sc_hd__mux2_1
XFILLER_0_54_191 VGND VGND VPWR VPWR sky130_fd_sc_hd__fill_1
X_2707_ instance_1.mem\[0\]\[44\] _1190_ _1177_ instance_1.mem\[3\]\[44\] VGND VGND
+ VPWR VPWR _1274_ sky130_fd_sc_hd__a22o_1
XFILLER_0_40_82 VGND VGND VPWR VPWR sky130_fd_sc_hd__fill_2
XFILLER_0_71_3 VPWR VGND VPWR VGND sky130_ef_sc_hd__decap_12
X_3687_ _1739_ VGND VGND VPWR VPWR _1806_ sky130_fd_sc_hd__buf_4
XFILLER_0_42_386 VGND VGND VPWR VPWR sky130_fd_sc_hd__decap_8
X_2638_ instance_1.mem\[1\]\[24\] _1224_ _1177_ instance_1.mem\[3\]\[24\] VGND VGND
+ VPWR VPWR _1225_ sky130_fd_sc_hd__a22o_1
X_2569_ net281 _1163_ _1172_ _1174_ VGND VGND VPWR VPWR _0191_ sky130_fd_sc_hd__o22a_1
X_4308_ clknet_leaf_57_clk _0534_ VGND VGND VPWR VPWR instance_1.mem\[2\]\[60\] sky130_fd_sc_hd__dfxtp_1
X_4239_ clknet_leaf_56_clk _0465_ VGND VGND VPWR VPWR instance_1.mem\[3\]\[63\] sky130_fd_sc_hd__dfxtp_1
XTAP_TAPCELL_ROW_38_551 VGND VPWR sky130_fd_sc_hd__tapvpwrvgnd_1
XFILLER_0_37_103 VGND VGND VPWR VPWR sky130_fd_sc_hd__fill_2
XFILLER_0_65_401 VGND VGND VPWR VPWR sky130_fd_sc_hd__fill_2
XFILLER_0_65_445 VGND VGND VPWR VPWR sky130_fd_sc_hd__decap_3
XTAP_TAPCELL_ROW_88_1029 VGND VPWR sky130_fd_sc_hd__tapvpwrvgnd_1
XFILLER_0_75_209 VGND VGND VPWR VPWR sky130_fd_sc_hd__decap_4
XFILLER_0_0_29 VPWR VGND VPWR VGND sky130_ef_sc_hd__decap_12
XTAP_TAPCELL_ROW_72_874 VGND VPWR sky130_fd_sc_hd__tapvpwrvgnd_1
X_1940_ instance_0.rdata\[41\] instance_1.rdata\[41\] _0766_ VGND VGND VPWR VPWR _0768_
+ sky130_fd_sc_hd__mux2_1
XFILLER_0_16_309 VGND VGND VPWR VPWR sky130_fd_sc_hd__fill_2
X_1871_ _0731_ VGND VGND VPWR VPWR net147 sky130_fd_sc_hd__buf_1
XFILLER_0_9_27 VPWR VGND VPWR VGND sky130_ef_sc_hd__decap_12
X_3610_ net19 net555 _1762_ VGND VGND VPWR VPWR _1766_ sky130_fd_sc_hd__mux2_1
XFILLER_0_3_203 VGND VGND VPWR VPWR sky130_fd_sc_hd__fill_2
X_3541_ net656 net63 _1725_ VGND VGND VPWR VPWR _1729_ sky130_fd_sc_hd__mux2_1
X_3472_ net592 net27 _1692_ VGND VGND VPWR VPWR _1693_ sky130_fd_sc_hd__mux2_1
XFILLER_0_10_85 VGND VGND VPWR VPWR sky130_fd_sc_hd__fill_2
X_2423_ net155 _1056_ _1066_ _1067_ VGND VGND VPWR VPWR _0152_ sky130_fd_sc_hd__o22a_1
X_2354_ instance_0.mem\[3\]\[20\] _1016_ _1008_ instance_0.mem\[2\]\[20\] VGND VGND
+ VPWR VPWR _1017_ sky130_fd_sc_hd__a22o_1
X_2285_ instance_0.mem\[1\]\[2\] _0965_ _0950_ instance_0.mem\[2\]\[2\] _0960_ VGND
+ VGND VPWR VPWR _0966_ sky130_fd_sc_hd__a221o_1
X_4024_ clknet_leaf_3_clk net276 VGND VGND VPWR VPWR instance_1.rdata\[64\] sky130_fd_sc_hd__dfxtp_1
XFILLER_0_19_169 VGND VGND VPWR VPWR sky130_fd_sc_hd__fill_2
X_3808_ clknet_leaf_3_clk _0034_ VGND VGND VPWR VPWR instance_1.mem\[1\]\[64\] sky130_fd_sc_hd__dfxtp_1
X_3739_ net468 net8 _1827_ VGND VGND VPWR VPWR _1833_ sky130_fd_sc_hd__mux2_1
XTAP_TAPCELL_ROW_7_257 VGND VPWR sky130_fd_sc_hd__tapvpwrvgnd_1
XFILLER_0_85_529 VGND VGND VPWR VPWR sky130_fd_sc_hd__decap_4
XFILLER_0_38_456 VGND VGND VPWR VPWR sky130_fd_sc_hd__fill_1
XTAP_TAPCELL_ROW_41_579 VGND VPWR sky130_fd_sc_hd__tapvpwrvgnd_1
XFILLER_0_21_334 VGND VGND VPWR VPWR sky130_fd_sc_hd__fill_2
XFILLER_0_33_183 VPWR VGND VPWR VGND sky130_ef_sc_hd__decap_12
XTAP_TAPCELL_ROW_77_922 VGND VPWR sky130_fd_sc_hd__tapvpwrvgnd_1
XTAP_TAPCELL_ROW_49_657 VGND VPWR sky130_fd_sc_hd__tapvpwrvgnd_1
X_2070_ net616 net58 _0828_ VGND VGND VPWR VPWR _0838_ sky130_fd_sc_hd__mux2_1
XFILLER_0_88_345 VGND VGND VPWR VPWR sky130_fd_sc_hd__fill_2
XFILLER_0_76_518 VPWR VGND VPWR VGND sky130_ef_sc_hd__decap_12
X_2972_ _1428_ VGND VGND VPWR VPWR _0340_ sky130_fd_sc_hd__clkbuf_1
XTAP_TAPCELL_ROW_32_502 VGND VPWR sky130_fd_sc_hd__tapvpwrvgnd_1
X_1923_ instance_0.rdata\[33\] instance_1.rdata\[33\] _0755_ VGND VGND VPWR VPWR _0759_
+ sky130_fd_sc_hd__mux2_1
XFILLER_0_4_501 VPWR VGND VPWR VGND sky130_ef_sc_hd__decap_12
X_1854_ instance_0.rdata\[0\] instance_1.rdata\[0\] _0722_ VGND VGND VPWR VPWR _0723_
+ sky130_fd_sc_hd__mux2_1
Xhold703 instance_0.mem\[1\]\[65\] VGND VGND VPWR VPWR net851 sky130_fd_sc_hd__dlygate4sd3_1
Xhold714 instance_0.mem\[3\]\[36\] VGND VGND VPWR VPWR net862 sky130_fd_sc_hd__dlygate4sd3_1
Xhold736 instance_0.mem\[1\]\[44\] VGND VGND VPWR VPWR net884 sky130_fd_sc_hd__dlygate4sd3_1
Xhold725 instance_0.mem\[0\]\[16\] VGND VGND VPWR VPWR net873 sky130_fd_sc_hd__dlygate4sd3_1
X_3524_ net684 net54 _1714_ VGND VGND VPWR VPWR _1720_ sky130_fd_sc_hd__mux2_1
Xhold758 instance_0.mem\[2\]\[2\] VGND VGND VPWR VPWR net906 sky130_fd_sc_hd__dlygate4sd3_1
Xhold747 instance_0.mem\[2\]\[64\] VGND VGND VPWR VPWR net895 sky130_fd_sc_hd__dlygate4sd3_1
X_3455_ net601 net18 _1681_ VGND VGND VPWR VPWR _1684_ sky130_fd_sc_hd__mux2_1
Xhold769 instance_0.mem\[0\]\[29\] VGND VGND VPWR VPWR net917 sky130_fd_sc_hd__dlygate4sd3_1
X_2406_ net219 _1024_ _1054_ _1055_ VGND VGND VPWR VPWR _0147_ sky130_fd_sc_hd__o22a_1
X_3386_ net563 net62 _1644_ VGND VGND VPWR VPWR _1647_ sky130_fd_sc_hd__mux2_1
X_2337_ net165 _0990_ _1003_ _1004_ VGND VGND VPWR VPWR _0129_ sky130_fd_sc_hd__o22a_1
XTAP_TAPCELL_ROW_4_227 VGND VPWR sky130_fd_sc_hd__tapvpwrvgnd_1
X_2268_ _0944_ VGND VGND VPWR VPWR _0951_ sky130_fd_sc_hd__buf_4
X_4007_ clknet_leaf_19_clk _0233_ VGND VGND VPWR VPWR instance_1.rdata\[47\] sky130_fd_sc_hd__dfxtp_1
X_2199_ net45 net889 _0899_ VGND VGND VPWR VPWR _0907_ sky130_fd_sc_hd__mux2_1
XFILLER_0_79_389 VGND VGND VPWR VPWR sky130_fd_sc_hd__decap_3
XFILLER_0_67_529 VGND VGND VPWR VPWR sky130_fd_sc_hd__decap_4
XFILLER_0_30_197 VGND VGND VPWR VPWR sky130_fd_sc_hd__decap_4
Xhold30 _0220_ VGND VGND VPWR VPWR net178 sky130_fd_sc_hd__dlygate4sd3_1
Xhold41 instance_0.rdata\[36\] VGND VGND VPWR VPWR net189 sky130_fd_sc_hd__dlygate4sd3_1
XFILLER_0_89_109 VGND VGND VPWR VPWR sky130_fd_sc_hd__decap_3
XFILLER_0_26_29 VPWR VGND VPWR VGND sky130_ef_sc_hd__decap_12
Xhold63 instance_0.rdata\[25\] VGND VGND VPWR VPWR net211 sky130_fd_sc_hd__dlygate4sd3_1
Xhold52 _0170_ VGND VGND VPWR VPWR net200 sky130_fd_sc_hd__dlygate4sd3_1
Xhold74 _0161_ VGND VGND VPWR VPWR net222 sky130_fd_sc_hd__dlygate4sd3_1
Xhold85 instance_0.rdata\[13\] VGND VGND VPWR VPWR net233 sky130_fd_sc_hd__dlygate4sd3_1
Xhold96 _0241_ VGND VGND VPWR VPWR net244 sky130_fd_sc_hd__dlygate4sd3_1
XTAP_TAPCELL_ROW_46_627 VGND VPWR sky130_fd_sc_hd__tapvpwrvgnd_1
XFILLER_0_38_220 VGND VGND VPWR VPWR sky130_fd_sc_hd__decap_4
XFILLER_0_38_231 VGND VGND VPWR VPWR sky130_fd_sc_hd__decap_3
XFILLER_0_38_286 VPWR VGND VPWR VGND sky130_ef_sc_hd__decap_12
XFILLER_0_41_429 VGND VGND VPWR VPWR sky130_fd_sc_hd__fill_1
XANTENNA_5 net99 VGND VGND VPWR VPWR sky130_fd_sc_hd__diode_2
XFILLER_0_21_131 VGND VGND VPWR VPWR sky130_fd_sc_hd__fill_1
X_3240_ _1569_ VGND VGND VPWR VPWR _0467_ sky130_fd_sc_hd__clkbuf_1
X_3171_ _1533_ VGND VGND VPWR VPWR _0434_ sky130_fd_sc_hd__clkbuf_1
X_2122_ net5 net915 _0866_ VGND VGND VPWR VPWR _0867_ sky130_fd_sc_hd__mux2_1
XFILLER_0_83_57 VPWR VGND VPWR VGND sky130_ef_sc_hd__decap_12
XFILLER_0_20_9 VGND VGND VPWR VPWR sky130_fd_sc_hd__decap_3
X_2053_ _0829_ VGND VGND VPWR VPWR _0020_ sky130_fd_sc_hd__clkbuf_1
XTAP_TAPCELL_ROW_17_351 VGND VPWR sky130_fd_sc_hd__tapvpwrvgnd_1
XFILLER_0_17_437 VGND VGND VPWR VPWR sky130_fd_sc_hd__fill_1
X_2955_ _1419_ VGND VGND VPWR VPWR _0332_ sky130_fd_sc_hd__clkbuf_1
X_2886_ _1382_ VGND VGND VPWR VPWR _0300_ sky130_fd_sc_hd__clkbuf_1
X_1906_ instance_0.rdata\[25\] instance_1.rdata\[25\] _0744_ VGND VGND VPWR VPWR _0750_
+ sky130_fd_sc_hd__mux2_1
Xhold500 instance_0.mem\[1\]\[38\] VGND VGND VPWR VPWR net648 sky130_fd_sc_hd__dlygate4sd3_1
Xhold511 instance_1.mem\[2\]\[25\] VGND VGND VPWR VPWR net659 sky130_fd_sc_hd__dlygate4sd3_1
Xhold544 instance_1.mem\[1\]\[45\] VGND VGND VPWR VPWR net692 sky130_fd_sc_hd__dlygate4sd3_1
Xhold533 instance_0.mem\[2\]\[34\] VGND VGND VPWR VPWR net681 sky130_fd_sc_hd__dlygate4sd3_1
Xhold522 instance_0.mem\[2\]\[59\] VGND VGND VPWR VPWR net670 sky130_fd_sc_hd__dlygate4sd3_1
X_3507_ net666 net45 _1703_ VGND VGND VPWR VPWR _1711_ sky130_fd_sc_hd__mux2_1
Xhold555 instance_0.mem\[2\]\[50\] VGND VGND VPWR VPWR net703 sky130_fd_sc_hd__dlygate4sd3_1
Xhold577 instance_0.mem\[1\]\[60\] VGND VGND VPWR VPWR net725 sky130_fd_sc_hd__dlygate4sd3_1
Xhold566 instance_0.mem\[3\]\[64\] VGND VGND VPWR VPWR net714 sky130_fd_sc_hd__dlygate4sd3_1
X_4487_ clknet_leaf_50_clk _0713_ VGND VGND VPWR VPWR instance_1.mem\[1\]\[23\] sky130_fd_sc_hd__dfxtp_1
Xhold588 instance_1.mem\[2\]\[21\] VGND VGND VPWR VPWR net736 sky130_fd_sc_hd__dlygate4sd3_1
X_3438_ net538 net9 _1670_ VGND VGND VPWR VPWR _1675_ sky130_fd_sc_hd__mux2_1
Xhold599 instance_0.mem\[1\]\[61\] VGND VGND VPWR VPWR net747 sky130_fd_sc_hd__dlygate4sd3_1
X_3369_ net612 net53 _1633_ VGND VGND VPWR VPWR _1638_ sky130_fd_sc_hd__mux2_1
XFILLER_0_67_337 VGND VGND VPWR VPWR sky130_fd_sc_hd__decap_4
XFILLER_0_82_307 VGND VGND VPWR VPWR sky130_fd_sc_hd__fill_1
XTAP_TAPCELL_ROW_51_674 VGND VPWR sky130_fd_sc_hd__tapvpwrvgnd_1
XFILLER_0_63_532 VGND VGND VPWR VPWR sky130_fd_sc_hd__fill_2
XFILLER_0_31_473 VGND VGND VPWR VPWR sky130_fd_sc_hd__decap_3
Xoutput86 net86 VGND VGND VPWR VPWR rdata[18] sky130_fd_sc_hd__clkbuf_4
Xoutput97 net97 VGND VGND VPWR VPWR rdata[28] sky130_fd_sc_hd__clkbuf_4
XTAP_TAPCELL_ROW_59_752 VGND VPWR sky130_fd_sc_hd__tapvpwrvgnd_1
XFILLER_0_54_510 VGND VGND VPWR VPWR sky130_fd_sc_hd__decap_3
XFILLER_0_66_381 VGND VGND VPWR VPWR sky130_fd_sc_hd__fill_1
X_2740_ _1165_ VGND VGND VPWR VPWR _1297_ sky130_fd_sc_hd__buf_4
X_2671_ _0978_ VGND VGND VPWR VPWR _1248_ sky130_fd_sc_hd__buf_4
X_4410_ clknet_leaf_41_clk _0636_ VGND VGND VPWR VPWR instance_1.mem\[0\]\[18\] sky130_fd_sc_hd__dfxtp_1
XFILLER_0_41_237 VGND VGND VPWR VPWR sky130_fd_sc_hd__fill_2
XFILLER_0_1_334 VGND VGND VPWR VPWR sky130_fd_sc_hd__fill_2
X_4341_ clknet_leaf_38_clk _0567_ VGND VGND VPWR VPWR instance_0.mem\[3\]\[21\] sky130_fd_sc_hd__dfxtp_1
XFILLER_0_1_389 VGND VGND VPWR VPWR sky130_fd_sc_hd__decap_3
X_4272_ clknet_leaf_35_clk _0498_ VGND VGND VPWR VPWR instance_1.mem\[2\]\[24\] sky130_fd_sc_hd__dfxtp_1
X_3223_ _1560_ VGND VGND VPWR VPWR _0459_ sky130_fd_sc_hd__clkbuf_1
X_3154_ _1524_ VGND VGND VPWR VPWR _0426_ sky130_fd_sc_hd__clkbuf_1
X_2105_ net26 net742 _0855_ VGND VGND VPWR VPWR _0858_ sky130_fd_sc_hd__mux2_1
X_3085_ _1487_ VGND VGND VPWR VPWR _0394_ sky130_fd_sc_hd__clkbuf_1
X_2036_ _0820_ VGND VGND VPWR VPWR _0012_ sky130_fd_sc_hd__clkbuf_1
XFILLER_0_49_337 VGND VGND VPWR VPWR sky130_fd_sc_hd__decap_3
XFILLER_0_76_167 VGND VGND VPWR VPWR sky130_fd_sc_hd__decap_6
XFILLER_0_43_60 VPWR VGND VPWR VGND sky130_ef_sc_hd__decap_12
X_3987_ clknet_leaf_32_clk net370 VGND VGND VPWR VPWR instance_1.rdata\[27\] sky130_fd_sc_hd__dfxtp_1
XFILLER_0_64_329 VGND VGND VPWR VPWR sky130_fd_sc_hd__decap_8
X_2938_ _1409_ VGND VGND VPWR VPWR _0325_ sky130_fd_sc_hd__clkbuf_1
XFILLER_0_72_373 VGND VGND VPWR VPWR sky130_fd_sc_hd__fill_2
X_2869_ _1373_ VGND VGND VPWR VPWR _0292_ sky130_fd_sc_hd__clkbuf_1
XTAP_TAPCELL_ROW_20_379 VGND VPWR sky130_fd_sc_hd__tapvpwrvgnd_1
XFILLER_0_13_440 VGND VGND VPWR VPWR sky130_fd_sc_hd__decap_8
XFILLER_0_4_161 VGND VGND VPWR VPWR sky130_fd_sc_hd__fill_2
XFILLER_0_4_183 VGND VGND VPWR VPWR sky130_fd_sc_hd__fill_1
Xhold330 instance_1.mem\[2\]\[38\] VGND VGND VPWR VPWR net478 sky130_fd_sc_hd__dlygate4sd3_1
Xhold352 instance_0.mem\[2\]\[63\] VGND VGND VPWR VPWR net500 sky130_fd_sc_hd__dlygate4sd3_1
Xhold341 instance_1.mem\[1\]\[31\] VGND VGND VPWR VPWR net489 sky130_fd_sc_hd__dlygate4sd3_1
XFILLER_0_7_93 VPWR VGND VPWR VGND sky130_ef_sc_hd__decap_12
Xhold363 instance_1.mem\[2\]\[1\] VGND VGND VPWR VPWR net511 sky130_fd_sc_hd__dlygate4sd3_1
Xhold385 instance_1.mem\[1\]\[24\] VGND VGND VPWR VPWR net533 sky130_fd_sc_hd__dlygate4sd3_1
Xhold396 instance_0.mem\[0\]\[54\] VGND VGND VPWR VPWR net544 sky130_fd_sc_hd__dlygate4sd3_1
Xhold374 instance_1.mem\[2\]\[53\] VGND VGND VPWR VPWR net522 sky130_fd_sc_hd__dlygate4sd3_1
XTAP_TAPCELL_ROW_56_722 VGND VPWR sky130_fd_sc_hd__tapvpwrvgnd_1
XTAP_TAPCELL_ROW_28_457 VGND VPWR sky130_fd_sc_hd__tapvpwrvgnd_1
Xclkbuf_3_6__f_clk clknet_0_clk VGND VGND VPWR VPWR clknet_3_6__leaf_clk sky130_fd_sc_hd__clkbuf_16
XFILLER_0_67_167 VGND VGND VPWR VPWR sky130_fd_sc_hd__fill_1
XTAP_TAPCELL_ROW_11_302 VGND VPWR sky130_fd_sc_hd__tapvpwrvgnd_1
XFILLER_0_2_109 VPWR VGND VPWR VGND sky130_ef_sc_hd__decap_12
XFILLER_0_23_215 VGND VGND VPWR VPWR sky130_fd_sc_hd__decap_8
XFILLER_0_23_248 VPWR VGND VPWR VGND sky130_ef_sc_hd__decap_12
XFILLER_0_48_16 VGND VGND VPWR VPWR sky130_fd_sc_hd__fill_1
XFILLER_0_48_49 VGND VGND VPWR VPWR sky130_fd_sc_hd__decap_6
XFILLER_0_58_101 VGND VGND VPWR VPWR sky130_fd_sc_hd__fill_1
X_3910_ clknet_leaf_38_clk net170 VGND VGND VPWR VPWR instance_0.rdata\[22\] sky130_fd_sc_hd__dfxtp_1
X_3841_ clknet_leaf_39_clk _0067_ VGND VGND VPWR VPWR instance_0.mem\[0\]\[25\] sky130_fd_sc_hd__dfxtp_1
XFILLER_0_46_318 VGND VGND VPWR VPWR sky130_fd_sc_hd__decap_3
X_3772_ net534 net25 _0805_ VGND VGND VPWR VPWR _1850_ sky130_fd_sc_hd__mux2_1
X_2723_ instance_1.mem\[0\]\[49\] _1190_ _1248_ instance_1.mem\[2\]\[49\] VGND VGND
+ VPWR VPWR _1285_ sky130_fd_sc_hd__a22o_1
X_2654_ _1236_ VGND VGND VPWR VPWR _0214_ sky130_fd_sc_hd__clkbuf_1
X_2585_ net357 _1163_ _1185_ _1186_ VGND VGND VPWR VPWR _0195_ sky130_fd_sc_hd__o22a_1
XFILLER_0_10_421 VGND VGND VPWR VPWR sky130_fd_sc_hd__fill_1
X_4324_ clknet_leaf_51_clk _0550_ VGND VGND VPWR VPWR instance_0.mem\[3\]\[4\] sky130_fd_sc_hd__dfxtp_1
XFILLER_0_1_186 VGND VGND VPWR VPWR sky130_fd_sc_hd__fill_1
X_4255_ clknet_leaf_47_clk _0481_ VGND VGND VPWR VPWR instance_1.mem\[2\]\[7\] sky130_fd_sc_hd__dfxtp_1
X_3206_ _1551_ VGND VGND VPWR VPWR _0451_ sky130_fd_sc_hd__clkbuf_1
X_4186_ clknet_leaf_46_clk _0412_ VGND VGND VPWR VPWR instance_1.mem\[3\]\[10\] sky130_fd_sc_hd__dfxtp_1
X_3137_ _1515_ VGND VGND VPWR VPWR _0418_ sky130_fd_sc_hd__clkbuf_1
X_3068_ _1478_ VGND VGND VPWR VPWR _0386_ sky130_fd_sc_hd__clkbuf_1
X_2019_ _0811_ VGND VGND VPWR VPWR _0004_ sky130_fd_sc_hd__clkbuf_1
XTAP_TAPCELL_ROW_25_427 VGND VPWR sky130_fd_sc_hd__tapvpwrvgnd_1
XFILLER_0_77_487 VPWR VGND VPWR VGND sky130_ef_sc_hd__decap_12
XFILLER_0_49_178 VGND VGND VPWR VPWR sky130_fd_sc_hd__fill_1
XFILLER_0_9_275 VGND VGND VPWR VPWR sky130_fd_sc_hd__fill_2
XFILLER_0_18_521 VGND VGND VPWR VPWR sky130_fd_sc_hd__decap_8
XFILLER_0_33_502 VGND VGND VPWR VPWR sky130_fd_sc_hd__fill_2
XFILLER_0_60_365 VGND VGND VPWR VPWR sky130_fd_sc_hd__decap_6
Xhold171 instance_0.rdata\[0\] VGND VGND VPWR VPWR net319 sky130_fd_sc_hd__dlygate4sd3_1
Xhold160 _0123_ VGND VGND VPWR VPWR net308 sky130_fd_sc_hd__dlygate4sd3_1
Xhold193 instance_1.rdata\[50\] VGND VGND VPWR VPWR net341 sky130_fd_sc_hd__dlygate4sd3_1
Xhold182 _0210_ VGND VGND VPWR VPWR net330 sky130_fd_sc_hd__dlygate4sd3_1
XFILLER_0_28_307 VGND VGND VPWR VPWR sky130_fd_sc_hd__fill_1
XFILLER_0_83_446 VGND VGND VPWR VPWR sky130_fd_sc_hd__fill_2
XFILLER_0_55_159 VGND VGND VPWR VPWR sky130_fd_sc_hd__decap_4
XFILLER_0_24_502 VPWR VGND VPWR VGND sky130_ef_sc_hd__decap_12
X_2370_ instance_0.mem\[1\]\[24\] _1010_ _0993_ instance_0.mem\[0\]\[24\] _1028_ VGND
+ VGND VPWR VPWR _1029_ sky130_fd_sc_hd__a221o_1
X_4040_ clknet_leaf_48_clk _0266_ VGND VGND VPWR VPWR instance_0.mem\[1\]\[8\] sky130_fd_sc_hd__dfxtp_1
XTAP_TAPCELL_ROW_67_828 VGND VPWR sky130_fd_sc_hd__tapvpwrvgnd_1
XFILLER_0_46_115 VGND VGND VPWR VPWR sky130_fd_sc_hd__decap_3
XFILLER_0_59_487 VGND VGND VPWR VPWR sky130_fd_sc_hd__fill_1
X_3824_ clknet_leaf_48_clk _0050_ VGND VGND VPWR VPWR instance_0.mem\[0\]\[8\] sky130_fd_sc_hd__dfxtp_1
XFILLER_0_6_245 VGND VGND VPWR VPWR sky130_fd_sc_hd__fill_1
XFILLER_0_40_72 VGND VGND VPWR VPWR sky130_fd_sc_hd__fill_1
X_3755_ _1841_ VGND VGND VPWR VPWR _0710_ sky130_fd_sc_hd__clkbuf_1
X_2706_ net163 _1261_ _1272_ _1273_ VGND VGND VPWR VPWR _0229_ sky130_fd_sc_hd__o22a_1
XTAP_TAPCELL_ROW_30_474 VGND VPWR sky130_fd_sc_hd__tapvpwrvgnd_1
X_3686_ _1805_ VGND VGND VPWR VPWR _0677_ sky130_fd_sc_hd__clkbuf_1
XPHY_EDGE_ROW_18_Left_108 VGND VGND VPWR VPWR sky130_fd_sc_hd__decap_3
XPHY_EDGE_ROW_12_Right_12 VGND VGND VPWR VPWR sky130_fd_sc_hd__decap_3
X_2637_ _0938_ VGND VGND VPWR VPWR _1224_ sky130_fd_sc_hd__clkbuf_8
X_2568_ instance_1.mem\[0\]\[5\] _1145_ _1127_ instance_1.mem\[2\]\[5\] _1173_ VGND
+ VGND VPWR VPWR _1174_ sky130_fd_sc_hd__a221o_1
X_2499_ net261 _1092_ _1121_ _1123_ VGND VGND VPWR VPWR _0172_ sky130_fd_sc_hd__o22a_1
X_4307_ clknet_leaf_11_clk _0533_ VGND VGND VPWR VPWR instance_1.mem\[2\]\[59\] sky130_fd_sc_hd__dfxtp_1
X_4238_ clknet_leaf_2_clk _0464_ VGND VGND VPWR VPWR instance_1.mem\[3\]\[62\] sky130_fd_sc_hd__dfxtp_1
XFILLER_0_4_83 VGND VGND VPWR VPWR sky130_fd_sc_hd__fill_1
X_4169_ clknet_leaf_1_clk _0395_ VGND VGND VPWR VPWR instance_0.mem\[2\]\[65\] sky130_fd_sc_hd__dfxtp_1
XPHY_EDGE_ROW_27_Left_117 VGND VGND VPWR VPWR sky130_fd_sc_hd__decap_3
XFILLER_0_69_207 VPWR VGND VPWR VGND sky130_ef_sc_hd__decap_12
XPHY_EDGE_ROW_21_Right_21 VGND VGND VPWR VPWR sky130_fd_sc_hd__decap_3
XTAP_TAPCELL_ROW_38_552 VGND VPWR sky130_fd_sc_hd__tapvpwrvgnd_1
XFILLER_0_18_373 VGND VGND VPWR VPWR sky130_fd_sc_hd__decap_3
XPHY_EDGE_ROW_36_Left_126 VGND VGND VPWR VPWR sky130_fd_sc_hd__decap_3
XPHY_EDGE_ROW_30_Right_30 VGND VGND VPWR VPWR sky130_fd_sc_hd__decap_3
XFILLER_0_21_516 VPWR VGND VPWR VGND sky130_ef_sc_hd__decap_12
XFILLER_0_60_151 VGND VGND VPWR VPWR sky130_fd_sc_hd__decap_3
XFILLER_0_60_195 VGND VGND VPWR VPWR sky130_fd_sc_hd__fill_1
XPHY_EDGE_ROW_45_Left_135 VGND VGND VPWR VPWR sky130_fd_sc_hd__decap_3
XFILLER_0_61_38 VGND VGND VPWR VPWR sky130_fd_sc_hd__fill_1