* NGSPICE file created from dff_ram_4x72.ext - technology: sky130A

* Black-box entry subcircuit for sky130_fd_sc_hd__dfxtp_1 abstract view
.subckt sky130_fd_sc_hd__dfxtp_1 CLK D VGND VNB VPB VPWR Q
.ends

* Black-box entry subcircuit for sky130_fd_sc_hd__dlygate4sd3_1 abstract view
.subckt sky130_fd_sc_hd__dlygate4sd3_1 A VGND VNB VPB VPWR X
.ends

* Black-box entry subcircuit for sky130_fd_sc_hd__tapvpwrvgnd_1 abstract view
.subckt sky130_fd_sc_hd__tapvpwrvgnd_1 VGND VPWR
.ends

* Black-box entry subcircuit for sky130_fd_sc_hd__decap_3 abstract view
.subckt sky130_fd_sc_hd__decap_3 VGND VNB VPB VPWR
.ends

* Black-box entry subcircuit for sky130_fd_sc_hd__fill_1 abstract view
.subckt sky130_fd_sc_hd__fill_1 VGND VNB VPB VPWR
.ends

* Black-box entry subcircuit for sky130_fd_sc_hd__decap_4 abstract view
.subckt sky130_fd_sc_hd__decap_4 VGND VNB VPB VPWR
.ends

* Black-box entry subcircuit for sky130_fd_sc_hd__mux2_1 abstract view
.subckt sky130_fd_sc_hd__mux2_1 A0 A1 S VGND VNB VPB VPWR X
.ends

* Black-box entry subcircuit for sky130_fd_sc_hd__decap_8 abstract view
.subckt sky130_fd_sc_hd__decap_8 VGND VNB VPB VPWR
.ends

* Black-box entry subcircuit for sky130_fd_sc_hd__a22o_1 abstract view
.subckt sky130_fd_sc_hd__a22o_1 A1 A2 B1 B2 VGND VNB VPB VPWR X
.ends

* Black-box entry subcircuit for sky130_fd_sc_hd__clkbuf_1 abstract view
.subckt sky130_fd_sc_hd__clkbuf_1 A VGND VNB VPB VPWR X
.ends

* Black-box entry subcircuit for sky130_fd_sc_hd__a221o_1 abstract view
.subckt sky130_fd_sc_hd__a221o_1 A1 A2 B1 B2 C1 VGND VNB VPB VPWR X
.ends

* Black-box entry subcircuit for sky130_fd_sc_hd__fill_2 abstract view
.subckt sky130_fd_sc_hd__fill_2 VGND VNB VPB VPWR
.ends

* Black-box entry subcircuit for sky130_ef_sc_hd__decap_12 abstract view
.subckt sky130_ef_sc_hd__decap_12 VPWR VGND VPB VNB
.ends

* Black-box entry subcircuit for sky130_fd_sc_hd__decap_6 abstract view
.subckt sky130_fd_sc_hd__decap_6 VGND VNB VPB VPWR
.ends

* Black-box entry subcircuit for sky130_fd_sc_hd__o22a_1 abstract view
.subckt sky130_fd_sc_hd__o22a_1 A1 A2 B1 B2 VGND VNB VPB VPWR X
.ends

* Black-box entry subcircuit for sky130_fd_sc_hd__clkbuf_4 abstract view
.subckt sky130_fd_sc_hd__clkbuf_4 A VGND VNB VPB VPWR X
.ends

* Black-box entry subcircuit for sky130_fd_sc_hd__and3_1 abstract view
.subckt sky130_fd_sc_hd__and3_1 A B C VGND VNB VPB VPWR X
.ends

* Black-box entry subcircuit for sky130_fd_sc_hd__buf_4 abstract view
.subckt sky130_fd_sc_hd__buf_4 A VGND VNB VPB VPWR X
.ends

* Black-box entry subcircuit for sky130_fd_sc_hd__a21o_1 abstract view
.subckt sky130_fd_sc_hd__a21o_1 A1 A2 B1 VGND VNB VPB VPWR X
.ends

* Black-box entry subcircuit for sky130_fd_sc_hd__buf_2 abstract view
.subckt sky130_fd_sc_hd__buf_2 A VGND VNB VPB VPWR X
.ends

* Black-box entry subcircuit for sky130_fd_sc_hd__and4bb_1 abstract view
.subckt sky130_fd_sc_hd__and4bb_1 A_N B_N C D VGND VNB VPB VPWR X
.ends

* Black-box entry subcircuit for sky130_fd_sc_hd__clkbuf_8 abstract view
.subckt sky130_fd_sc_hd__clkbuf_8 A VGND VNB VPB VPWR X
.ends

* Black-box entry subcircuit for sky130_fd_sc_hd__and2_1 abstract view
.subckt sky130_fd_sc_hd__and2_1 A B VGND VNB VPB VPWR X
.ends

* Black-box entry subcircuit for sky130_fd_sc_hd__mux4_1 abstract view
.subckt sky130_fd_sc_hd__mux4_1 A0 A1 A2 A3 S0 S1 VGND VNB VPB VPWR X
.ends

* Black-box entry subcircuit for sky130_fd_sc_hd__or3b_1 abstract view
.subckt sky130_fd_sc_hd__or3b_1 A B C_N VGND VNB VPB VPWR X
.ends

* Black-box entry subcircuit for sky130_fd_sc_hd__clkbuf_2 abstract view
.subckt sky130_fd_sc_hd__clkbuf_2 A VGND VNB VPB VPWR X
.ends

* Black-box entry subcircuit for sky130_fd_sc_hd__clkbuf_16 abstract view
.subckt sky130_fd_sc_hd__clkbuf_16 A VGND VNB VPB VPWR X
.ends

* Black-box entry subcircuit for sky130_fd_sc_hd__and2b_1 abstract view
.subckt sky130_fd_sc_hd__and2b_1 A_N B VGND VNB VPB VPWR X
.ends

* Black-box entry subcircuit for sky130_fd_sc_hd__dlymetal6s2s_1 abstract view
.subckt sky130_fd_sc_hd__dlymetal6s2s_1 A VGND VNB VPB VPWR X
.ends

* Black-box entry subcircuit for sky130_fd_sc_hd__buf_1 abstract view
.subckt sky130_fd_sc_hd__buf_1 A VGND VNB VPB VPWR X
.ends

* Black-box entry subcircuit for sky130_fd_sc_hd__or2b_1 abstract view
.subckt sky130_fd_sc_hd__or2b_1 A B_N VGND VNB VPB VPWR X
.ends

* Black-box entry subcircuit for sky130_fd_sc_hd__or4_1 abstract view
.subckt sky130_fd_sc_hd__or4_1 A B C D VGND VNB VPB VPWR X
.ends

* Black-box entry subcircuit for sky130_fd_sc_hd__nor2_2 abstract view
.subckt sky130_fd_sc_hd__nor2_2 A B VGND VNB VPB VPWR Y
.ends

* Black-box entry subcircuit for sky130_fd_sc_hd__diode_2 abstract view
.subckt sky130_fd_sc_hd__diode_2 DIODE VGND VNB VPB VPWR
.ends

.subckt dff_ram_4x72 VGND VPWR address[0] address[1] clk en rdata[0] rdata[10] rdata[11]
+ rdata[12] rdata[13] rdata[14] rdata[15] rdata[16] rdata[17] rdata[18] rdata[19]
+ rdata[1] rdata[20] rdata[21] rdata[22] rdata[23] rdata[24] rdata[25] rdata[26] rdata[27]
+ rdata[28] rdata[29] rdata[2] rdata[30] rdata[31] rdata[32] rdata[33] rdata[34] rdata[35]
+ rdata[36] rdata[37] rdata[38] rdata[39] rdata[3] rdata[40] rdata[41] rdata[42] rdata[43]
+ rdata[44] rdata[45] rdata[46] rdata[47] rdata[48] rdata[49] rdata[4] rdata[50] rdata[51]
+ rdata[52] rdata[53] rdata[54] rdata[55] rdata[56] rdata[57] rdata[58] rdata[59]
+ rdata[5] rdata[60] rdata[61] rdata[62] rdata[63] rdata[64] rdata[65] rdata[66] rdata[67]
+ rdata[68] rdata[69] rdata[6] rdata[70] rdata[71] rdata[7] rdata[8] rdata[9] wdata[0]
+ wdata[10] wdata[11] wdata[12] wdata[13] wdata[14] wdata[15] wdata[16] wdata[17]
+ wdata[18] wdata[19] wdata[1] wdata[20] wdata[21] wdata[22] wdata[23] wdata[24] wdata[25]
+ wdata[26] wdata[27] wdata[28] wdata[29] wdata[2] wdata[30] wdata[31] wdata[32] wdata[33]
+ wdata[34] wdata[35] wdata[36] wdata[37] wdata[38] wdata[39] wdata[3] wdata[40] wdata[41]
+ wdata[42] wdata[43] wdata[44] wdata[45] wdata[46] wdata[47] wdata[48] wdata[49]
+ wdata[4] wdata[50] wdata[51] wdata[52] wdata[53] wdata[54] wdata[55] wdata[56] wdata[57]
+ wdata[58] wdata[59] wdata[5] wdata[60] wdata[61] wdata[62] wdata[63] wdata[64] wdata[65]
+ wdata[66] wdata[67] wdata[68] wdata[69] wdata[6] wdata[70] wdata[71] wdata[7] wdata[8]
+ wdata[9] wr_n
X_2037_ clknet_leaf_0_clk _0249_ VGND VGND VPWR VPWR mem\[1\]\[33\] sky130_fd_sc_hd__dfxtp_1
X_2106_ clknet_leaf_1_clk net267 VGND VGND VPWR VPWR net100 sky130_fd_sc_hd__dfxtp_1
Xhold362 mem\[2\]\[57\] VGND VGND VPWR VPWR net510 sky130_fd_sc_hd__dlygate4sd3_1
Xhold351 mem\[0\]\[64\] VGND VGND VPWR VPWR net499 sky130_fd_sc_hd__dlygate4sd3_1
Xhold340 mem\[0\]\[39\] VGND VGND VPWR VPWR net488 sky130_fd_sc_hd__dlygate4sd3_1
Xhold384 mem\[1\]\[48\] VGND VGND VPWR VPWR net532 sky130_fd_sc_hd__dlygate4sd3_1
Xhold395 mem\[1\]\[57\] VGND VGND VPWR VPWR net543 sky130_fd_sc_hd__dlygate4sd3_1
Xhold373 mem\[2\]\[11\] VGND VGND VPWR VPWR net521 sky130_fd_sc_hd__dlygate4sd3_1
XTAP_TAPCELL_ROW_43_415 VGND VPWR sky130_fd_sc_hd__tapvpwrvgnd_1
XFILLER_0_23_18 VGND VGND VPWR VPWR sky130_fd_sc_hd__decap_3
XFILLER_0_23_29 VGND VGND VPWR VPWR sky130_fd_sc_hd__fill_1
XFILLER_0_48_15 VGND VGND VPWR VPWR sky130_fd_sc_hd__decap_4
X_1270_ net27 net522 _0451_ VGND VGND VPWR VPWR _0452_ sky130_fd_sc_hd__mux2_1
XFILLER_0_3_39 VGND VGND VPWR VPWR sky130_fd_sc_hd__decap_8
X_0985_ net270 net39 _0832_ VGND VGND VPWR VPWR _0834_ sky130_fd_sc_hd__mux2_1
XFILLER_0_1_141 VGND VGND VPWR VPWR sky130_fd_sc_hd__fill_1
X_1606_ mem\[3\]\[20\] _0586_ _0617_ mem\[0\]\[20\] VGND VGND VPWR VPWR _0654_ sky130_fd_sc_hd__a22o_1
XFILLER_0_14_247 VGND VGND VPWR VPWR sky130_fd_sc_hd__decap_4
XFILLER_0_14_269 VGND VGND VPWR VPWR sky130_fd_sc_hd__fill_1
XTAP_TAPCELL_ROW_57_507 VGND VPWR sky130_fd_sc_hd__tapvpwrvgnd_1
X_1468_ _0557_ VGND VGND VPWR VPWR _0266_ sky130_fd_sc_hd__clkbuf_1
X_1399_ net13 net502 _0512_ VGND VGND VPWR VPWR _0521_ sky130_fd_sc_hd__mux2_1
X_1537_ mem\[3\]\[2\] _0599_ _0600_ mem\[1\]\[2\] _0594_ VGND VGND VPWR VPWR _0603_
+ sky130_fd_sc_hd__a221o_1
XFILLER_0_49_177 VGND VGND VPWR VPWR sky130_fd_sc_hd__fill_2
XFILLER_0_45_361 VGND VGND VPWR VPWR sky130_fd_sc_hd__fill_1
Xhold181 net131 VGND VGND VPWR VPWR net329 sky130_fd_sc_hd__dlygate4sd3_1
Xhold170 mem\[3\]\[27\] VGND VGND VPWR VPWR net318 sky130_fd_sc_hd__dlygate4sd3_1
Xhold192 mem\[0\]\[29\] VGND VGND VPWR VPWR net340 sky130_fd_sc_hd__dlygate4sd3_1
XFILLER_0_28_306 VGND VGND VPWR VPWR sky130_fd_sc_hd__fill_2
XFILLER_0_59_69 VPWR VGND VPWR VGND sky130_ef_sc_hd__decap_12
X_1322_ net54 net368 _0473_ VGND VGND VPWR VPWR _0479_ sky130_fd_sc_hd__mux2_1
XFILLER_0_38_9 VGND VGND VPWR VPWR sky130_fd_sc_hd__decap_6
X_1253_ net18 net471 _0440_ VGND VGND VPWR VPWR _0443_ sky130_fd_sc_hd__mux2_1
X_1184_ net63 net369 _0401_ VGND VGND VPWR VPWR _0405_ sky130_fd_sc_hd__mux2_1
XPHY_EDGE_ROW_20_Left_83 VGND VGND VPWR VPWR sky130_fd_sc_hd__decap_3
XTAP_TAPCELL_ROW_62_543 VGND VPWR sky130_fd_sc_hd__tapvpwrvgnd_1
X_0968_ net288 net30 _0821_ VGND VGND VPWR VPWR _0825_ sky130_fd_sc_hd__mux2_1
X_0899_ net421 net4 _0788_ VGND VGND VPWR VPWR _0789_ sky130_fd_sc_hd__mux2_1
XFILLER_0_52_139 VGND VGND VPWR VPWR sky130_fd_sc_hd__fill_1
XFILLER_0_29_28 VGND VGND VPWR VPWR sky130_fd_sc_hd__fill_2
XFILLER_0_61_15 VPWR VGND VPWR VGND sky130_ef_sc_hd__decap_12
XFILLER_0_0_29 VPWR VGND VPWR VGND sky130_ef_sc_hd__decap_12
XFILLER_0_43_139 VGND VGND VPWR VPWR sky130_fd_sc_hd__fill_2
XFILLER_0_28_147 VGND VGND VPWR VPWR sky130_fd_sc_hd__decap_8
X_1940_ clknet_leaf_21_clk _0152_ VGND VGND VPWR VPWR mem\[2\]\[8\] sky130_fd_sc_hd__dfxtp_1
XFILLER_0_9_27 VGND VGND VPWR VPWR sky130_fd_sc_hd__decap_4
X_1871_ clknet_leaf_24_clk _0083_ VGND VGND VPWR VPWR mem\[0\]\[11\] sky130_fd_sc_hd__dfxtp_1
XFILLER_0_3_269 VGND VGND VPWR VPWR sky130_fd_sc_hd__decap_8
XFILLER_0_3_214 VGND VGND VPWR VPWR sky130_fd_sc_hd__fill_2
X_1305_ net45 net564 _0462_ VGND VGND VPWR VPWR _0470_ sky130_fd_sc_hd__mux2_1
X_1236_ net9 net470 _0429_ VGND VGND VPWR VPWR _0434_ sky130_fd_sc_hd__mux2_1
X_1167_ net54 net405 _0390_ VGND VGND VPWR VPWR _0396_ sky130_fd_sc_hd__mux2_1
X_1098_ net18 net485 _0891_ VGND VGND VPWR VPWR _0360_ sky130_fd_sc_hd__mux2_1
XFILLER_0_19_125 VGND VGND VPWR VPWR sky130_fd_sc_hd__fill_1
XFILLER_0_30_345 VGND VGND VPWR VPWR sky130_fd_sc_hd__fill_1
XFILLER_0_30_334 VGND VGND VPWR VPWR sky130_fd_sc_hd__fill_2
XTAP_TAPCELL_ROW_38_381 VGND VPWR sky130_fd_sc_hd__tapvpwrvgnd_1
XFILLER_0_31_29 VGND VGND VPWR VPWR sky130_fd_sc_hd__fill_1
XFILLER_0_25_128 VGND VGND VPWR VPWR sky130_fd_sc_hd__decap_3
XFILLER_0_33_161 VGND VGND VPWR VPWR sky130_fd_sc_hd__fill_1
XFILLER_0_18_191 VGND VGND VPWR VPWR sky130_fd_sc_hd__decap_4
XTAP_TAPCELL_ROW_21_270 VGND VPWR sky130_fd_sc_hd__tapvpwrvgnd_1
XFILLER_0_56_15 VPWR VGND VPWR VGND sky130_ef_sc_hd__decap_12
X_2070_ clknet_leaf_15_clk _0282_ VGND VGND VPWR VPWR mem\[1\]\[66\] sky130_fd_sc_hd__dfxtp_1
X_1021_ _0852_ VGND VGND VPWR VPWR _0058_ sky130_fd_sc_hd__clkbuf_1
XFILLER_0_8_306 VGND VGND VPWR VPWR sky130_fd_sc_hd__fill_2
X_1854_ clknet_leaf_14_clk _0066_ VGND VGND VPWR VPWR mem\[3\]\[66\] sky130_fd_sc_hd__dfxtp_1
X_1923_ clknet_leaf_15_clk _0135_ VGND VGND VPWR VPWR mem\[0\]\[63\] sky130_fd_sc_hd__dfxtp_1
X_1785_ mem\[3\]\[71\] _0599_ _0600_ mem\[1\]\[71\] VGND VGND VPWR VPWR _0782_ sky130_fd_sc_hd__a22o_1
XFILLER_0_24_194 VGND VGND VPWR VPWR sky130_fd_sc_hd__fill_2
X_1219_ net70 net520 _0418_ VGND VGND VPWR VPWR _0425_ sky130_fd_sc_hd__mux2_1
XFILLER_0_47_253 VGND VGND VPWR VPWR sky130_fd_sc_hd__fill_1
XTAP_TAPCELL_ROW_35_362 VGND VPWR sky130_fd_sc_hd__tapvpwrvgnd_1
XPHY_EDGE_ROW_42_Left_105 VGND VGND VPWR VPWR sky130_fd_sc_hd__decap_3
Xhold41 mem\[2\]\[35\] VGND VGND VPWR VPWR net189 sky130_fd_sc_hd__dlygate4sd3_1
XFILLER_0_30_197 VGND VGND VPWR VPWR sky130_fd_sc_hd__decap_4
XFILLER_0_26_29 VGND VGND VPWR VPWR sky130_fd_sc_hd__fill_1
Xhold30 _0294_ VGND VGND VPWR VPWR net178 sky130_fd_sc_hd__dlygate4sd3_1
Xhold52 _0302_ VGND VGND VPWR VPWR net200 sky130_fd_sc_hd__dlygate4sd3_1
Xhold63 net89 VGND VGND VPWR VPWR net211 sky130_fd_sc_hd__dlygate4sd3_1
Xhold74 _0312_ VGND VGND VPWR VPWR net222 sky130_fd_sc_hd__dlygate4sd3_1
XPHY_EDGE_ROW_51_Left_114 VGND VGND VPWR VPWR sky130_fd_sc_hd__decap_3
Xhold96 _0674_ VGND VGND VPWR VPWR net244 sky130_fd_sc_hd__dlygate4sd3_1
Xhold85 net91 VGND VGND VPWR VPWR net233 sky130_fd_sc_hd__dlygate4sd3_1
XPHY_EDGE_ROW_60_Left_123 VGND VGND VPWR VPWR sky130_fd_sc_hd__decap_3
X_1570_ mem\[3\]\[10\] _0586_ _0597_ mem\[2\]\[10\] VGND VGND VPWR VPWR _0628_ sky130_fd_sc_hd__a22o_1
X_2053_ clknet_leaf_5_clk _0265_ VGND VGND VPWR VPWR mem\[1\]\[49\] sky130_fd_sc_hd__dfxtp_1
XTAP_TAPCELL_ROW_49_454 VGND VPWR sky130_fd_sc_hd__tapvpwrvgnd_1
X_2122_ clknet_leaf_9_clk net265 VGND VGND VPWR VPWR net117 sky130_fd_sc_hd__dfxtp_1
X_1004_ net287 net49 _0843_ VGND VGND VPWR VPWR _0844_ sky130_fd_sc_hd__mux2_1
XTAP_TAPCELL_ROW_32_343 VGND VPWR sky130_fd_sc_hd__tapvpwrvgnd_1
X_1837_ clknet_leaf_6_clk _0049_ VGND VGND VPWR VPWR mem\[3\]\[49\] sky130_fd_sc_hd__dfxtp_1
X_1906_ clknet_leaf_9_clk _0118_ VGND VGND VPWR VPWR mem\[0\]\[46\] sky130_fd_sc_hd__dfxtp_1
X_1768_ net223 _0757_ _0768_ _0770_ VGND VGND VPWR VPWR _0353_ sky130_fd_sc_hd__o22a_1
XFILLER_0_4_353 VGND VGND VPWR VPWR sky130_fd_sc_hd__decap_3
X_1699_ mem\[0\]\[45\] _0651_ _0721_ mem\[1\]\[45\] VGND VGND VPWR VPWR _0722_ sky130_fd_sc_hd__a22o_1
XFILLER_0_35_223 VGND VGND VPWR VPWR sky130_fd_sc_hd__fill_1
XFILLER_0_50_248 VGND VGND VPWR VPWR sky130_fd_sc_hd__decap_4
Xoutput86 net86 VGND VGND VPWR VPWR rdata[18] sky130_fd_sc_hd__clkbuf_4
Xoutput97 net97 VGND VGND VPWR VPWR rdata[28] sky130_fd_sc_hd__clkbuf_4
XFILLER_0_53_38 VPWR VGND VPWR VGND sky130_ef_sc_hd__decap_12
XTAP_TAPCELL_ROW_46_435 VGND VPWR sky130_fd_sc_hd__tapvpwrvgnd_1
XFILLER_0_26_201 VGND VGND VPWR VPWR sky130_fd_sc_hd__fill_1
X_1622_ _0607_ _0608_ mem\[3\]\[24\] VGND VGND VPWR VPWR _0666_ sky130_fd_sc_hd__and3_1
X_1484_ _0565_ VGND VGND VPWR VPWR _0274_ sky130_fd_sc_hd__clkbuf_1
X_1553_ mem\[3\]\[5\] _0599_ _0591_ mem\[2\]\[5\] _0594_ VGND VGND VPWR VPWR _0616_
+ sky130_fd_sc_hd__a221o_1
XFILLER_0_49_337 VGND VGND VPWR VPWR sky130_fd_sc_hd__decap_3
X_2036_ clknet_leaf_1_clk _0248_ VGND VGND VPWR VPWR mem\[1\]\[32\] sky130_fd_sc_hd__dfxtp_1
X_2105_ clknet_leaf_28_clk net194 VGND VGND VPWR VPWR net98 sky130_fd_sc_hd__dfxtp_1
XFILLER_0_43_82 VGND VGND VPWR VPWR sky130_fd_sc_hd__decap_6
XFILLER_0_17_278 VGND VGND VPWR VPWR sky130_fd_sc_hd__fill_2
Xhold330 mem\[2\]\[68\] VGND VGND VPWR VPWR net478 sky130_fd_sc_hd__dlygate4sd3_1
XFILLER_0_40_281 VPWR VGND VPWR VGND sky130_ef_sc_hd__decap_12
Xhold352 mem\[2\]\[70\] VGND VGND VPWR VPWR net500 sky130_fd_sc_hd__dlygate4sd3_1
Xhold341 mem\[1\]\[0\] VGND VGND VPWR VPWR net489 sky130_fd_sc_hd__dlygate4sd3_1
Xhold374 mem\[2\]\[30\] VGND VGND VPWR VPWR net522 sky130_fd_sc_hd__dlygate4sd3_1
Xhold396 mem\[0\]\[13\] VGND VGND VPWR VPWR net544 sky130_fd_sc_hd__dlygate4sd3_1
Xhold385 mem\[1\]\[7\] VGND VGND VPWR VPWR net533 sky130_fd_sc_hd__dlygate4sd3_1
Xhold363 mem\[1\]\[5\] VGND VGND VPWR VPWR net511 sky130_fd_sc_hd__dlygate4sd3_1
XTAP_TAPCELL_ROW_43_416 VGND VPWR sky130_fd_sc_hd__tapvpwrvgnd_1
XFILLER_0_58_123 VPWR VGND VPWR VGND sky130_ef_sc_hd__decap_12
XFILLER_0_46_307 VGND VGND VPWR VPWR sky130_fd_sc_hd__fill_1
X_0984_ _0833_ VGND VGND VPWR VPWR _0040_ sky130_fd_sc_hd__clkbuf_1
X_1605_ net159 _0634_ _0652_ _0653_ VGND VGND VPWR VPWR _0307_ sky130_fd_sc_hd__o22a_1
XFILLER_0_1_175 VGND VGND VPWR VPWR sky130_fd_sc_hd__fill_1
X_1536_ mem\[0\]\[2\] _0596_ _0597_ mem\[2\]\[2\] VGND VGND VPWR VPWR _0602_ sky130_fd_sc_hd__a22o_1
XTAP_TAPCELL_ROW_57_508 VGND VPWR sky130_fd_sc_hd__tapvpwrvgnd_1
X_1467_ net49 net445 _0556_ VGND VGND VPWR VPWR _0557_ sky130_fd_sc_hd__mux2_1
X_1398_ _0520_ VGND VGND VPWR VPWR _0233_ sky130_fd_sc_hd__clkbuf_1
X_2019_ clknet_leaf_25_clk _0231_ VGND VGND VPWR VPWR mem\[1\]\[15\] sky130_fd_sc_hd__dfxtp_1
XFILLER_0_60_365 VGND VGND VPWR VPWR sky130_fd_sc_hd__fill_1
XFILLER_0_60_321 VPWR VGND VPWR VGND sky130_ef_sc_hd__decap_12
Xhold171 mem\[3\]\[68\] VGND VGND VPWR VPWR net319 sky130_fd_sc_hd__dlygate4sd3_1
Xhold193 mem\[2\]\[48\] VGND VGND VPWR VPWR net341 sky130_fd_sc_hd__dlygate4sd3_1
Xhold160 mem\[3\]\[63\] VGND VGND VPWR VPWR net308 sky130_fd_sc_hd__dlygate4sd3_1
Xhold182 mem\[3\]\[29\] VGND VGND VPWR VPWR net330 sky130_fd_sc_hd__dlygate4sd3_1
XFILLER_0_59_15 VPWR VGND VPWR VGND sky130_ef_sc_hd__decap_12
XFILLER_0_11_218 VGND VGND VPWR VPWR sky130_fd_sc_hd__decap_6
X_1321_ _0478_ VGND VGND VPWR VPWR _0198_ sky130_fd_sc_hd__clkbuf_1
X_1252_ _0442_ VGND VGND VPWR VPWR _0165_ sky130_fd_sc_hd__clkbuf_1
XTAP_TAPCELL_ROW_62_544 VGND VPWR sky130_fd_sc_hd__tapvpwrvgnd_1
X_1183_ _0404_ VGND VGND VPWR VPWR _0134_ sky130_fd_sc_hd__clkbuf_1
XFILLER_0_46_104 VGND VGND VPWR VPWR sky130_fd_sc_hd__fill_1
XFILLER_0_46_148 VGND VGND VPWR VPWR sky130_fd_sc_hd__fill_2
XFILLER_0_42_321 VGND VGND VPWR VPWR sky130_fd_sc_hd__decap_4
X_0967_ _0824_ VGND VGND VPWR VPWR _0032_ sky130_fd_sc_hd__clkbuf_1
X_1519_ _0498_ VGND VGND VPWR VPWR _0587_ sky130_fd_sc_hd__buf_4
X_0898_ _0787_ VGND VGND VPWR VPWR _0788_ sky130_fd_sc_hd__buf_4
XFILLER_0_10_284 VGND VGND VPWR VPWR sky130_fd_sc_hd__decap_6
XPHY_EDGE_ROW_12_Right_12 VGND VGND VPWR VPWR sky130_fd_sc_hd__decap_3
XFILLER_0_4_94 VGND VGND VPWR VPWR sky130_fd_sc_hd__fill_1
XPHY_EDGE_ROW_21_Right_21 VGND VGND VPWR VPWR sky130_fd_sc_hd__decap_3
XFILLER_0_37_104 VGND VGND VPWR VPWR sky130_fd_sc_hd__decap_3
XPHY_EDGE_ROW_30_Right_30 VGND VGND VPWR VPWR sky130_fd_sc_hd__decap_3
XFILLER_0_61_27 VPWR VGND VPWR VGND sky130_ef_sc_hd__decap_12
X_1870_ clknet_leaf_22_clk _0082_ VGND VGND VPWR VPWR mem\[0\]\[10\] sky130_fd_sc_hd__dfxtp_1
XTAP_TAPCELL_ROW_24_290 VGND VPWR sky130_fd_sc_hd__tapvpwrvgnd_1
XFILLER_0_50_9 VGND VGND VPWR VPWR sky130_fd_sc_hd__decap_6
XFILLER_0_24_365 VGND VGND VPWR VPWR sky130_fd_sc_hd__fill_1
X_1166_ _0395_ VGND VGND VPWR VPWR _0126_ sky130_fd_sc_hd__clkbuf_1
X_1304_ _0469_ VGND VGND VPWR VPWR _0190_ sky130_fd_sc_hd__clkbuf_1
X_1235_ _0433_ VGND VGND VPWR VPWR _0157_ sky130_fd_sc_hd__clkbuf_1
XFILLER_0_19_84 VGND VGND VPWR VPWR sky130_fd_sc_hd__decap_6
X_1097_ _0893_ VGND VGND VPWR VPWR _0093_ sky130_fd_sc_hd__clkbuf_1
X_1999_ clknet_leaf_13_clk _0211_ VGND VGND VPWR VPWR mem\[2\]\[67\] sky130_fd_sc_hd__dfxtp_1
XFILLER_0_42_184 VPWR VGND VPWR VGND sky130_ef_sc_hd__decap_12
XFILLER_0_15_310 VGND VGND VPWR VPWR sky130_fd_sc_hd__decap_8
XTAP_TAPCELL_ROW_38_382 VGND VPWR sky130_fd_sc_hd__tapvpwrvgnd_1
XTAP_TAPCELL_ROW_21_271 VGND VPWR sky130_fd_sc_hd__tapvpwrvgnd_1
XFILLER_0_33_195 VGND VGND VPWR VPWR sky130_fd_sc_hd__decap_4
XFILLER_0_21_357 VGND VGND VPWR VPWR sky130_fd_sc_hd__decap_4
X_1020_ net271 net57 _0843_ VGND VGND VPWR VPWR _0852_ sky130_fd_sc_hd__mux2_1
XFILLER_0_56_49 VGND VGND VPWR VPWR sky130_fd_sc_hd__fill_1
XFILLER_0_56_27 VGND VGND VPWR VPWR sky130_fd_sc_hd__fill_1
X_1922_ clknet_leaf_13_clk _0134_ VGND VGND VPWR VPWR mem\[0\]\[62\] sky130_fd_sc_hd__dfxtp_1
X_1853_ clknet_leaf_17_clk _0065_ VGND VGND VPWR VPWR mem\[3\]\[65\] sky130_fd_sc_hd__dfxtp_1
X_1784_ net209 _0757_ _0779_ _0781_ VGND VGND VPWR VPWR _0358_ sky130_fd_sc_hd__o22a_1
X_1149_ _0386_ VGND VGND VPWR VPWR _0118_ sky130_fd_sc_hd__clkbuf_1
XTAP_TAPCELL_ROW_27_308 VGND VPWR sky130_fd_sc_hd__tapvpwrvgnd_1
XFILLER_0_1_51 VGND VGND VPWR VPWR sky130_fd_sc_hd__decap_4
X_1218_ _0424_ VGND VGND VPWR VPWR _0149_ sky130_fd_sc_hd__clkbuf_1
XTAP_TAPCELL_ROW_35_363 VGND VPWR sky130_fd_sc_hd__tapvpwrvgnd_1
XFILLER_0_62_279 VGND VGND VPWR VPWR sky130_fd_sc_hd__fill_1
XFILLER_0_30_187 VGND VGND VPWR VPWR sky130_fd_sc_hd__decap_3
Xhold53 net122 VGND VGND VPWR VPWR net201 sky130_fd_sc_hd__dlygate4sd3_1
Xhold75 net138 VGND VGND VPWR VPWR net223 sky130_fd_sc_hd__dlygate4sd3_1
Xhold42 _0323_ VGND VGND VPWR VPWR net190 sky130_fd_sc_hd__dlygate4sd3_1
Xhold20 _0298_ VGND VGND VPWR VPWR net168 sky130_fd_sc_hd__dlygate4sd3_1
Xhold31 net148 VGND VGND VPWR VPWR net179 sky130_fd_sc_hd__dlygate4sd3_1
Xhold64 _0308_ VGND VGND VPWR VPWR net212 sky130_fd_sc_hd__dlygate4sd3_1
Xhold86 _0310_ VGND VGND VPWR VPWR net234 sky130_fd_sc_hd__dlygate4sd3_1
Xhold97 _0314_ VGND VGND VPWR VPWR net245 sky130_fd_sc_hd__dlygate4sd3_1
XFILLER_0_42_29 VGND VGND VPWR VPWR sky130_fd_sc_hd__decap_6
XFILLER_0_38_210 VGND VGND VPWR VPWR sky130_fd_sc_hd__fill_1
XTAP_TAPCELL_ROW_41_399 VGND VPWR sky130_fd_sc_hd__tapvpwrvgnd_1
XFILLER_0_6_29 VPWR VGND VPWR VGND sky130_ef_sc_hd__decap_12
X_2052_ clknet_leaf_5_clk _0264_ VGND VGND VPWR VPWR mem\[1\]\[48\] sky130_fd_sc_hd__dfxtp_1
XTAP_TAPCELL_ROW_49_455 VGND VPWR sky130_fd_sc_hd__tapvpwrvgnd_1
X_2121_ clknet_leaf_5_clk net228 VGND VGND VPWR VPWR net116 sky130_fd_sc_hd__dfxtp_1
X_1003_ _0787_ VGND VGND VPWR VPWR _0843_ sky130_fd_sc_hd__buf_4
XFILLER_0_16_85 VGND VGND VPWR VPWR sky130_fd_sc_hd__decap_8
X_1905_ clknet_leaf_5_clk _0117_ VGND VGND VPWR VPWR mem\[0\]\[45\] sky130_fd_sc_hd__dfxtp_1
XFILLER_0_44_224 VGND VGND VPWR VPWR sky130_fd_sc_hd__decap_4
XTAP_TAPCELL_ROW_32_344 VGND VPWR sky130_fd_sc_hd__tapvpwrvgnd_1
X_1836_ clknet_leaf_6_clk _0048_ VGND VGND VPWR VPWR mem\[3\]\[48\] sky130_fd_sc_hd__dfxtp_1
X_1767_ mem\[0\]\[65\] _0683_ _0716_ mem\[1\]\[65\] _0769_ VGND VGND VPWR VPWR _0770_
+ sky130_fd_sc_hd__a221o_1
X_1698_ _0498_ VGND VGND VPWR VPWR _0721_ sky130_fd_sc_hd__buf_4
XFILLER_0_4_365 VGND VGND VPWR VPWR sky130_fd_sc_hd__fill_1
XFILLER_0_4_321 VPWR VGND VPWR VGND sky130_ef_sc_hd__decap_12
XPHY_EDGE_ROW_6_Right_6 VGND VGND VPWR VPWR sky130_fd_sc_hd__decap_3
XFILLER_0_57_92 VGND VGND VPWR VPWR sky130_fd_sc_hd__decap_4
XFILLER_0_57_81 VGND VGND VPWR VPWR sky130_fd_sc_hd__decap_3
XFILLER_0_35_279 VGND VGND VPWR VPWR sky130_fd_sc_hd__fill_1
Xoutput98 net98 VGND VGND VPWR VPWR rdata[29] sky130_fd_sc_hd__clkbuf_4
Xoutput87 net87 VGND VGND VPWR VPWR rdata[19] sky130_fd_sc_hd__clkbuf_4
XTAP_TAPCELL_ROW_46_436 VGND VPWR sky130_fd_sc_hd__tapvpwrvgnd_1
XPHY_EDGE_ROW_59_Right_59 VGND VGND VPWR VPWR sky130_fd_sc_hd__decap_3
XFILLER_0_41_216 VGND VGND VPWR VPWR sky130_fd_sc_hd__fill_1
XFILLER_0_1_335 VGND VGND VPWR VPWR sky130_fd_sc_hd__fill_1
X_1621_ mem\[2\]\[24\] _0597_ _0604_ VGND VGND VPWR VPWR _0665_ sky130_fd_sc_hd__a21o_1
X_1552_ mem\[0\]\[5\] _0596_ _0587_ mem\[1\]\[5\] VGND VGND VPWR VPWR _0615_ sky130_fd_sc_hd__a22o_1
X_1483_ net57 net302 _0556_ VGND VGND VPWR VPWR _0565_ sky130_fd_sc_hd__mux2_1
X_2104_ clknet_leaf_29_clk net218 VGND VGND VPWR VPWR net97 sky130_fd_sc_hd__dfxtp_1
XFILLER_0_49_349 VGND VGND VPWR VPWR sky130_fd_sc_hd__decap_3
XFILLER_0_49_327 VGND VGND VPWR VPWR sky130_fd_sc_hd__fill_1
X_2035_ clknet_leaf_1_clk _0247_ VGND VGND VPWR VPWR mem\[1\]\[31\] sky130_fd_sc_hd__dfxtp_1
Xhold353 net140 VGND VGND VPWR VPWR net501 sky130_fd_sc_hd__dlygate4sd3_1
Xhold320 mem\[0\]\[61\] VGND VGND VPWR VPWR net468 sky130_fd_sc_hd__dlygate4sd3_1
Xhold397 mem\[1\]\[42\] VGND VGND VPWR VPWR net545 sky130_fd_sc_hd__dlygate4sd3_1
Xhold342 net108 VGND VGND VPWR VPWR net490 sky130_fd_sc_hd__dlygate4sd3_1
Xhold386 mem\[1\]\[23\] VGND VGND VPWR VPWR net534 sky130_fd_sc_hd__dlygate4sd3_1
Xhold364 mem\[1\]\[21\] VGND VGND VPWR VPWR net512 sky130_fd_sc_hd__dlygate4sd3_1
Xhold331 mem\[2\]\[7\] VGND VGND VPWR VPWR net479 sky130_fd_sc_hd__dlygate4sd3_1
Xhold375 mem\[2\]\[5\] VGND VGND VPWR VPWR net523 sky130_fd_sc_hd__dlygate4sd3_1
X_1819_ clknet_leaf_1_clk _0031_ VGND VGND VPWR VPWR mem\[3\]\[31\] sky130_fd_sc_hd__dfxtp_1
XTAP_TAPCELL_ROW_43_417 VGND VPWR sky130_fd_sc_hd__tapvpwrvgnd_1
XFILLER_0_58_157 VGND VGND VPWR VPWR sky130_fd_sc_hd__fill_2
XFILLER_0_58_135 VGND VGND VPWR VPWR sky130_fd_sc_hd__decap_4
XFILLER_0_58_179 VPWR VGND VPWR VGND sky130_ef_sc_hd__decap_12
X_0983_ net372 net38 _0832_ VGND VGND VPWR VPWR _0833_ sky130_fd_sc_hd__mux2_1
XFILLER_0_13_31 VGND VGND VPWR VPWR sky130_fd_sc_hd__fill_1
X_1535_ net185 _0583_ _0598_ _0601_ VGND VGND VPWR VPWR _0289_ sky130_fd_sc_hd__o22a_1
X_1604_ mem\[3\]\[19\] _0599_ _0639_ mem\[2\]\[19\] _0624_ VGND VGND VPWR VPWR _0653_
+ sky130_fd_sc_hd__a221o_1
XFILLER_0_1_110 VGND VGND VPWR VPWR sky130_fd_sc_hd__fill_2
X_1466_ _0500_ VGND VGND VPWR VPWR _0556_ sky130_fd_sc_hd__buf_4
X_1397_ net12 net386 _0512_ VGND VGND VPWR VPWR _0520_ sky130_fd_sc_hd__mux2_1
X_2018_ clknet_leaf_26_clk _0230_ VGND VGND VPWR VPWR mem\[1\]\[14\] sky130_fd_sc_hd__dfxtp_1
XFILLER_0_60_333 VPWR VGND VPWR VGND sky130_ef_sc_hd__decap_12
XFILLER_0_20_219 VGND VGND VPWR VPWR sky130_fd_sc_hd__decap_6
Xhold172 mem\[3\]\[48\] VGND VGND VPWR VPWR net320 sky130_fd_sc_hd__dlygate4sd3_1
Xhold194 mem\[2\]\[60\] VGND VGND VPWR VPWR net342 sky130_fd_sc_hd__dlygate4sd3_1
Xhold183 mem\[0\]\[38\] VGND VGND VPWR VPWR net331 sky130_fd_sc_hd__dlygate4sd3_1
Xhold150 mem\[0\]\[4\] VGND VGND VPWR VPWR net298 sky130_fd_sc_hd__dlygate4sd3_1
Xhold161 mem\[3\]\[18\] VGND VGND VPWR VPWR net309 sky130_fd_sc_hd__dlygate4sd3_1
XFILLER_0_50_29 VGND VGND VPWR VPWR sky130_fd_sc_hd__fill_1
XFILLER_0_36_363 VGND VGND VPWR VPWR sky130_fd_sc_hd__fill_1
XFILLER_0_59_27 VPWR VGND VPWR VGND sky130_ef_sc_hd__decap_12
X_1320_ net53 net535 _0473_ VGND VGND VPWR VPWR _0478_ sky130_fd_sc_hd__mux2_1
X_1182_ net62 net451 _0401_ VGND VGND VPWR VPWR _0404_ sky130_fd_sc_hd__mux2_1
X_1251_ net17 net554 _0440_ VGND VGND VPWR VPWR _0442_ sky130_fd_sc_hd__mux2_1
XTAP_TAPCELL_ROW_62_545 VGND VPWR sky130_fd_sc_hd__tapvpwrvgnd_1
X_0897_ _0786_ VGND VGND VPWR VPWR _0787_ sky130_fd_sc_hd__clkbuf_4
X_0966_ net268 net29 _0821_ VGND VGND VPWR VPWR _0824_ sky130_fd_sc_hd__mux2_1
XFILLER_0_57_3 VPWR VGND VPWR VGND sky130_ef_sc_hd__decap_12
X_1449_ _0547_ VGND VGND VPWR VPWR _0257_ sky130_fd_sc_hd__clkbuf_1
X_1518_ _0585_ VGND VGND VPWR VPWR _0586_ sky130_fd_sc_hd__buf_4
XTAP_TAPCELL_ROW_2_145 VGND VPWR sky130_fd_sc_hd__tapvpwrvgnd_1
XFILLER_0_52_108 VGND VGND VPWR VPWR sky130_fd_sc_hd__decap_4
XFILLER_0_37_127 VGND VGND VPWR VPWR sky130_fd_sc_hd__fill_2
XFILLER_0_60_141 VGND VGND VPWR VPWR sky130_fd_sc_hd__fill_1
XFILLER_0_45_18 VGND VGND VPWR VPWR sky130_fd_sc_hd__decap_8
XFILLER_0_61_39 VPWR VGND VPWR VGND sky130_ef_sc_hd__decap_12
XTAP_TAPCELL_ROW_16_236 VGND VPWR sky130_fd_sc_hd__tapvpwrvgnd_1
XFILLER_0_36_182 VGND VGND VPWR VPWR sky130_fd_sc_hd__fill_2
XFILLER_0_10_21 VGND VGND VPWR VPWR sky130_fd_sc_hd__decap_6
XTAP_TAPCELL_ROW_24_291 VGND VPWR sky130_fd_sc_hd__tapvpwrvgnd_1
XFILLER_0_43_9 VGND VGND VPWR VPWR sky130_fd_sc_hd__decap_6
X_1303_ net44 net487 _0462_ VGND VGND VPWR VPWR _0469_ sky130_fd_sc_hd__mux2_1
XFILLER_0_10_76 VGND VGND VPWR VPWR sky130_fd_sc_hd__decap_8
X_1165_ net53 net415 _0390_ VGND VGND VPWR VPWR _0395_ sky130_fd_sc_hd__mux2_1
XFILLER_0_35_73 VGND VGND VPWR VPWR sky130_fd_sc_hd__fill_2
X_1096_ net17 net474 _0891_ VGND VGND VPWR VPWR _0893_ sky130_fd_sc_hd__mux2_1
X_1234_ net8 net434 _0429_ VGND VGND VPWR VPWR _0433_ sky130_fd_sc_hd__mux2_1
X_1998_ clknet_leaf_14_clk _0210_ VGND VGND VPWR VPWR mem\[2\]\[66\] sky130_fd_sc_hd__dfxtp_1
XFILLER_0_42_174 VGND VGND VPWR VPWR sky130_fd_sc_hd__fill_2
X_0949_ net290 net20 _0810_ VGND VGND VPWR VPWR _0815_ sky130_fd_sc_hd__mux2_1
XTAP_TAPCELL_ROW_38_383 VGND VPWR sky130_fd_sc_hd__tapvpwrvgnd_1
XTAP_TAPCELL_ROW_13_217 VGND VPWR sky130_fd_sc_hd__tapvpwrvgnd_1
XFILLER_0_18_182 VGND VGND VPWR VPWR sky130_fd_sc_hd__fill_1
XTAP_TAPCELL_ROW_21_272 VGND VPWR sky130_fd_sc_hd__tapvpwrvgnd_1
X_1921_ clknet_leaf_17_clk _0133_ VGND VGND VPWR VPWR mem\[0\]\[61\] sky130_fd_sc_hd__dfxtp_1
X_1852_ clknet_leaf_16_clk _0064_ VGND VGND VPWR VPWR mem\[3\]\[64\] sky130_fd_sc_hd__dfxtp_1
X_1783_ mem\[0\]\[70\] _0683_ _0619_ mem\[2\]\[70\] _0780_ VGND VGND VPWR VPWR _0781_
+ sky130_fd_sc_hd__a221o_1
X_1148_ net44 net551 _0379_ VGND VGND VPWR VPWR _0386_ sky130_fd_sc_hd__mux2_1
XTAP_TAPCELL_ROW_35_364 VGND VPWR sky130_fd_sc_hd__tapvpwrvgnd_1
XTAP_TAPCELL_ROW_27_309 VGND VPWR sky130_fd_sc_hd__tapvpwrvgnd_1
X_1079_ net8 net544 _0880_ VGND VGND VPWR VPWR _0884_ sky130_fd_sc_hd__mux2_1
X_1217_ net59 net523 _0418_ VGND VGND VPWR VPWR _0424_ sky130_fd_sc_hd__mux2_1
XFILLER_0_62_93 VGND VGND VPWR VPWR sky130_fd_sc_hd__fill_1
Xhold54 _0338_ VGND VGND VPWR VPWR net202 sky130_fd_sc_hd__dlygate4sd3_1
Xhold43 net120 VGND VGND VPWR VPWR net191 sky130_fd_sc_hd__dlygate4sd3_1
Xhold98 net118 VGND VGND VPWR VPWR net246 sky130_fd_sc_hd__dlygate4sd3_1
Xhold76 _0353_ VGND VGND VPWR VPWR net224 sky130_fd_sc_hd__dlygate4sd3_1
Xhold87 net107 VGND VGND VPWR VPWR net235 sky130_fd_sc_hd__dlygate4sd3_1
Xhold10 _0311_ VGND VGND VPWR VPWR net158 sky130_fd_sc_hd__dlygate4sd3_1
Xhold21 net84 VGND VGND VPWR VPWR net169 sky130_fd_sc_hd__dlygate4sd3_1
Xhold32 _0297_ VGND VGND VPWR VPWR net180 sky130_fd_sc_hd__dlygate4sd3_1
Xhold65 net94 VGND VGND VPWR VPWR net213 sky130_fd_sc_hd__dlygate4sd3_1
XFILLER_0_42_19 VGND VGND VPWR VPWR sky130_fd_sc_hd__fill_1
XFILLER_0_38_244 VGND VGND VPWR VPWR sky130_fd_sc_hd__decap_8
X_2120_ clknet_leaf_2_clk net242 VGND VGND VPWR VPWR net115 sky130_fd_sc_hd__dfxtp_1
X_1002_ _0842_ VGND VGND VPWR VPWR _0049_ sky130_fd_sc_hd__clkbuf_1
X_2051_ clknet_leaf_7_clk _0263_ VGND VGND VPWR VPWR mem\[1\]\[47\] sky130_fd_sc_hd__dfxtp_1
XTAP_TAPCELL_ROW_49_456 VGND VPWR sky130_fd_sc_hd__tapvpwrvgnd_1
X_1835_ clknet_leaf_7_clk _0047_ VGND VGND VPWR VPWR mem\[3\]\[47\] sky130_fd_sc_hd__dfxtp_1
XFILLER_0_44_269 VGND VGND VPWR VPWR sky130_fd_sc_hd__fill_1
XFILLER_0_44_214 VGND VGND VPWR VPWR sky130_fd_sc_hd__fill_1
X_1904_ clknet_leaf_3_clk _0116_ VGND VGND VPWR VPWR mem\[0\]\[44\] sky130_fd_sc_hd__dfxtp_1
XTAP_TAPCELL_ROW_32_345 VGND VPWR sky130_fd_sc_hd__tapvpwrvgnd_1
XFILLER_0_32_41 VGND VGND VPWR VPWR sky130_fd_sc_hd__decap_4
XFILLER_0_29_255 VGND VGND VPWR VPWR sky130_fd_sc_hd__decap_4
XFILLER_0_4_333 VPWR VGND VPWR VGND sky130_ef_sc_hd__decap_12
X_1766_ _0611_ _0785_ mem\[3\]\[65\] VGND VGND VPWR VPWR _0769_ sky130_fd_sc_hd__and3_1
X_1697_ net241 _0695_ _0718_ _0720_ VGND VGND VPWR VPWR _0332_ sky130_fd_sc_hd__o22a_1
XFILLER_0_12_144 VGND VGND VPWR VPWR sky130_fd_sc_hd__fill_1
XFILLER_0_35_247 VGND VGND VPWR VPWR sky130_fd_sc_hd__decap_8
XFILLER_0_7_193 VGND VGND VPWR VPWR sky130_fd_sc_hd__decap_6
Xoutput88 net88 VGND VGND VPWR VPWR rdata[1] sky130_fd_sc_hd__clkbuf_4
Xoutput77 net77 VGND VGND VPWR VPWR rdata[0] sky130_fd_sc_hd__buf_2