*SPEF "ieee 1481-1999"
*DESIGN "dff_ram_4x72"
*DATE "11:11:11 Fri 11 11, 1111"
*VENDOR "OpenRCX"
*PROGRAM "Parallel Extraction"
*VERSION "1.0"
*DESIGN_FLOW "NAME_SCOPE LOCAL" "PIN_CAP NONE"
*DIVIDER /
*DELIMITER :
*BUS_DELIMITER []
*T_UNIT 1 NS
*C_UNIT 1 PF
*R_UNIT 1 OHM
*L_UNIT 1 HENRY

*NAME_MAP
*3 address[0]
*4 address[1]
*5 clk
*6 en
*7 rdata[0]
*8 rdata[10]
*9 rdata[11]
*10 rdata[12]
*11 rdata[13]
*12 rdata[14]
*13 rdata[15]
*14 rdata[16]
*15 rdata[17]
*16 rdata[18]
*17 rdata[19]
*18 rdata[1]
*19 rdata[20]
*20 rdata[21]
*21 rdata[22]
*22 rdata[23]
*23 rdata[24]
*24 rdata[25]
*25 rdata[26]
*26 rdata[27]
*27 rdata[28]
*28 rdata[29]
*29 rdata[2]
*30 rdata[30]
*31 rdata[31]
*32 rdata[32]
*33 rdata[33]
*34 rdata[34]
*35 rdata[35]
*36 rdata[36]
*37 rdata[37]
*38 rdata[38]
*39 rdata[39]
*40 rdata[3]
*41 rdata[40]
*42 rdata[41]
*43 rdata[42]
*44 rdata[43]
*45 rdata[44]
*46 rdata[45]
*47 rdata[46]
*48 rdata[47]
*49 rdata[48]
*50 rdata[49]
*51 rdata[4]
*52 rdata[50]
*53 rdata[51]
*54 rdata[52]
*55 rdata[53]
*56 rdata[54]
*57 rdata[55]
*58 rdata[56]
*59 rdata[57]
*60 rdata[58]
*61 rdata[59]
*62 rdata[5]
*63 rdata[60]
*64 rdata[61]
*65 rdata[62]
*66 rdata[63]
*67 rdata[64]
*68 rdata[65]
*69 rdata[66]
*70 rdata[67]
*71 rdata[68]
*72 rdata[69]
*73 rdata[6]
*74 rdata[70]
*75 rdata[71]
*76 rdata[7]
*77 rdata[8]
*78 rdata[9]
*79 wdata[0]
*80 wdata[10]
*81 wdata[11]
*82 wdata[12]
*83 wdata[13]
*84 wdata[14]
*85 wdata[15]
*86 wdata[16]
*87 wdata[17]
*88 wdata[18]
*89 wdata[19]
*90 wdata[1]
*91 wdata[20]
*92 wdata[21]
*93 wdata[22]
*94 wdata[23]
*95 wdata[24]
*96 wdata[25]
*97 wdata[26]
*98 wdata[27]
*99 wdata[28]
*100 wdata[29]
*101 wdata[2]
*102 wdata[30]
*103 wdata[31]
*104 wdata[32]
*105 wdata[33]
*106 wdata[34]
*107 wdata[35]
*108 wdata[36]
*109 wdata[37]
*110 wdata[38]
*111 wdata[39]
*112 wdata[3]
*113 wdata[40]
*114 wdata[41]
*115 wdata[42]
*116 wdata[43]
*117 wdata[44]
*118 wdata[45]
*119 wdata[46]
*120 wdata[47]
*121 wdata[48]
*122 wdata[49]
*123 wdata[4]
*124 wdata[50]
*125 wdata[51]
*126 wdata[52]
*127 wdata[53]
*128 wdata[54]
*129 wdata[55]
*130 wdata[56]
*131 wdata[57]
*132 wdata[58]
*133 wdata[59]
*134 wdata[5]
*135 wdata[60]
*136 wdata[61]
*137 wdata[62]
*138 wdata[63]
*139 wdata[64]
*140 wdata[65]
*141 wdata[66]
*142 wdata[67]
*143 wdata[68]
*144 wdata[69]
*145 wdata[6]
*146 wdata[70]
*147 wdata[71]
*148 wdata[7]
*149 wdata[8]
*150 wdata[9]
*151 wr_n
*152 _0000_
*153 _0001_
*154 _0002_
*155 _0003_
*156 _0004_
*157 _0005_
*158 _0006_
*159 _0007_
*160 _0008_
*161 _0009_
*162 _0010_
*163 _0011_
*164 _0012_
*165 _0013_
*166 _0014_
*167 _0015_
*168 _0016_
*169 _0017_
*170 _0018_
*171 _0019_
*172 _0020_
*173 _0021_
*174 _0022_
*175 _0023_
*176 _0024_
*177 _0025_
*178 _0026_
*179 _0027_
*180 _0028_
*181 _0029_
*182 _0030_
*183 _0031_
*184 _0032_
*185 _0033_
*186 _0034_
*187 _0035_
*188 _0036_
*189 _0037_
*190 _0038_
*191 _0039_
*192 _0040_
*193 _0041_
*194 _0042_
*195 _0043_
*196 _0044_
*197 _0045_
*198 _0046_
*199 _0047_
*200 _0048_
*201 _0049_
*202 _0050_
*203 _0051_
*204 _0052_
*205 _0053_
*206 _0054_
*207 _0055_
*208 _0056_
*209 _0057_
*210 _0058_
*211 _0059_
*212 _0060_
*213 _0061_
*214 _0062_
*215 _0063_
*216 _0064_
*217 _0065_
*218 _0066_
*219 _0067_
*220 _0068_
*221 _0069_
*222 _0070_
*223 _0071_
*224 _0072_
*225 _0073_
*226 _0074_
*227 _0075_
*228 _0076_
*229 _0077_
*230 _0078_
*231 _0079_
*232 _0080_
*233 _0081_
*234 _0082_
*235 _0083_
*236 _0084_
*237 _0085_
*238 _0086_
*239 _0087_
*240 _0088_
*241 _0089_
*242 _0090_
*243 _0091_
*244 _0092_
*245 _0093_
*246 _0094_
*247 _0095_
*248 _0096_
*249 _0097_
*250 _0098_
*251 _0099_
*252 _0100_
*253 _0101_
*254 _0102_
*255 _0103_
*256 _0104_
*257 _0105_
*258 _0106_
*259 _0107_
*260 _0108_
*261 _0109_
*262 _0110_
*263 _0111_
*264 _0112_
*265 _0113_
*266 _0114_
*267 _0115_
*268 _0116_
*269 _0117_
*270 _0118_
*271 _0119_
*272 _0120_
*273 _0121_
*274 _0122_
*275 _0123_
*276 _0124_
*277 _0125_
*278 _0126_
*279 _0127_
*280 _0128_
*281 _0129_
*282 _0130_
*283 _0131_
*284 _0132_
*285 _0133_
*286 _0134_
*287 _0135_
*288 _0136_
*289 _0137_
*290 _0138_
*291 _0139_
*292 _0140_
*293 _0141_
*294 _0142_
*295 _0143_
*296 _0144_
*297 _0145_
*298 _0146_
*299 _0147_
*300 _0148_
*301 _0149_
*302 _0150_
*303 _0151_
*304 _0152_
*305 _0153_
*306 _0154_
*307 _0155_
*308 _0156_
*309 _0157_
*310 _0158_
*311 _0159_
*312 _0160_
*313 _0161_
*314 _0162_
*315 _0163_
*316 _0164_
*317 _0165_
*318 _0166_
*319 _0167_
*320 _0168_
*321 _0169_
*322 _0170_
*323 _0171_
*324 _0172_
*325 _0173_
*326 _0174_
*327 _0175_
*328 _0176_
*329 _0177_
*330 _0178_
*331 _0179_
*332 _0180_
*333 _0181_
*334 _0182_
*335 _0183_
*336 _0184_
*337 _0185_
*338 _0186_
*339 _0187_
*340 _0188_
*341 _0189_
*342 _0190_
*343 _0191_
*344 _0192_
*345 _0193_
*346 _0194_
*347 _0195_
*348 _0196_
*349 _0197_
*350 _0198_
*351 _0199_
*352 _0200_
*353 _0201_
*354 _0202_
*355 _0203_
*356 _0204_
*357 _0205_
*358 _0206_
*359 _0207_
*360 _0208_
*361 _0209_
*362 _0210_
*363 _0211_
*364 _0212_
*365 _0213_
*366 _0214_
*367 _0215_
*368 _0216_
*369 _0217_
*370 _0218_
*371 _0219_
*372 _0220_
*373 _0221_
*374 _0222_
*375 _0223_
*376 _0224_
*377 _0225_
*378 _0226_
*379 _0227_
*380 _0228_
*381 _0229_
*382 _0230_
*383 _0231_
*384 _0232_
*385 _0233_
*386 _0234_
*387 _0235_
*388 _0236_
*389 _0237_
*390 _0238_
*391 _0239_
*392 _0240_
*393 _0241_
*394 _0242_
*395 _0243_
*396 _0244_
*397 _0245_
*398 _0246_
*399 _0247_
*400 _0248_
*401 _0249_
*402 _0250_
*403 _0251_
*404 _0252_
*405 _0253_
*406 _0254_
*407 _0255_
*408 _0256_
*409 _0257_
*410 _0258_
*411 _0259_
*412 _0260_
*413 _0261_
*414 _0262_
*415 _0263_
*416 _0264_
*417 _0265_
*418 _0266_
*419 _0267_
*420 _0268_
*421 _0269_
*422 _0270_
*423 _0271_
*424 _0272_
*425 _0273_
*426 _0274_
*427 _0275_
*428 _0276_
*429 _0277_
*430 _0278_
*431 _0279_
*432 _0280_
*433 _0281_
*434 _0282_
*435 _0283_
*436 _0284_
*437 _0285_
*438 _0286_
*439 _0287_
*440 _0288_
*441 _0289_
*442 _0290_
*443 _0291_
*444 _0292_
*445 _0293_
*446 _0294_
*447 _0295_
*448 _0296_
*449 _0297_
*450 _0298_
*451 _0299_
*452 _0300_
*453 _0301_
*454 _0302_
*455 _0303_
*456 _0304_
*457 _0305_
*458 _0306_
*459 _0307_
*460 _0308_
*461 _0309_
*462 _0310_
*463 _0311_
*464 _0312_
*465 _0313_
*466 _0314_
*467 _0315_
*468 _0316_
*469 _0317_
*470 _0318_
*471 _0319_
*472 _0320_
*473 _0321_
*474 _0322_
*475 _0323_
*476 _0324_
*477 _0325_
*478 _0326_
*479 _0327_
*480 _0328_
*481 _0329_
*482 _0330_
*483 _0331_
*484 _0332_
*485 _0333_
*486 _0334_
*487 _0335_
*488 _0336_
*489 _0337_
*490 _0338_
*491 _0339_
*492 _0340_
*493 _0341_
*494 _0342_
*495 _0343_
*496 _0344_
*497 _0345_
*498 _0346_
*499 _0347_
*500 _0348_
*501 _0349_
*502 _0350_
*503 _0351_
*504 _0352_
*505 _0353_
*506 _0354_
*507 _0355_
*508 _0356_
*509 _0357_
*510 _0358_
*511 _0359_
*512 _0360_
*513 _0361_
*514 _0362_
*515 _0363_
*516 _0364_
*517 _0365_
*518 _0366_
*519 _0367_
*520 _0368_
*521 _0369_
*522 _0370_
*523 _0371_
*524 _0372_
*525 _0373_
*526 _0374_
*527 _0375_
*528 _0376_
*529 _0377_
*530 _0378_
*531 _0379_
*532 _0380_
*533 _0381_
*534 _0382_
*535 _0383_
*536 _0384_
*537 _0385_
*538 _0386_
*539 _0387_
*540 _0388_
*541 _0389_
*542 _0390_
*543 _0391_
*544 _0392_
*545 _0393_
*546 _0394_
*547 _0395_
*548 _0396_
*549 _0397_
*550 _0398_
*551 _0399_
*552 _0400_
*553 _0401_
*554 _0402_
*555 _0403_
*556 _0404_
*557 _0405_
*558 _0406_
*559 _0407_
*560 _0408_
*561 _0409_
*562 _0410_
*563 _0411_
*564 _0412_
*565 _0413_
*566 _0414_
*567 _0415_
*568 _0416_
*569 _0417_
*570 _0418_
*571 _0419_
*572 _0420_
*573 _0421_
*574 _0422_
*575 _0423_
*576 _0424_
*577 _0425_
*578 _0426_
*579 _0427_
*580 _0428_
*581 _0429_
*582 _0430_
*583 _0431_
*584 _0432_
*585 _0433_
*586 _0434_
*587 _0435_
*588 _0436_
*589 _0437_
*590 _0438_
*591 _0439_
*592 _0440_
*593 _0441_
*594 _0442_
*595 _0443_
*596 _0444_
*597 _0445_
*598 _0446_
*599 _0447_
*600 _0448_
*601 _0449_
*602 _0450_
*603 _0451_
*604 _0452_
*605 _0453_
*606 _0454_
*607 _0455_
*608 _0456_
*609 _0457_
*610 _0458_
*611 _0459_
*612 _0460_
*613 _0461_
*614 _0462_
*615 _0463_
*616 _0464_
*617 _0465_
*618 _0466_
*619 _0467_
*620 _0468_
*621 _0469_
*622 _0470_
*623 _0471_
*624 _0472_
*625 _0473_
*626 _0474_
*627 _0475_
*628 _0476_
*629 _0477_
*630 _0478_
*631 _0479_
*632 _0480_
*633 _0481_
*634 _0482_
*635 _0483_
*636 _0484_
*637 _0485_
*638 _0486_
*639 _0487_
*640 _0488_
*641 _0489_
*642 _0490_
*643 _0491_
*644 _0492_
*645 _0493_
*646 _0494_
*647 _0495_
*648 _0496_
*649 _0497_
*650 _0498_
*651 _0499_
*652 _0500_
*653 _0501_
*654 _0502_
*655 _0503_
*656 _0504_
*657 _0505_
*658 _0506_
*659 _0507_
*660 _0508_
*661 _0509_
*662 _0510_
*663 _0511_
*664 _0512_
*665 _0513_
*666 _0514_
*667 _0515_
*668 _0516_
*669 _0517_
*670 _0518_
*671 _0519_
*672 _0520_
*673 _0521_
*674 _0522_
*675 _0523_
*676 _0524_
*677 _0525_
*678 _0526_
*679 _0527_
*680 _0528_
*681 _0529_
*682 _0530_
*683 _0531_
*684 _0532_
*685 _0533_
*686 _0534_
*687 _0535_
*688 _0536_
*689 _0537_
*690 _0538_
*691 _0539_
*692 _0540_
*693 _0541_
*694 _0542_
*695 _0543_
*696 _0544_
*697 _0545_
*698 _0546_
*699 _0547_
*700 _0548_
*701 _0549_
*702 _0550_
*703 _0551_
*704 _0552_
*705 _0553_
*706 _0554_
*707 _0555_
*708 _0556_
*709 _0557_
*710 _0558_
*711 _0559_
*712 _0560_
*713 _0561_
*714 _0562_
*715 _0563_
*716 _0564_
*717 _0565_
*718 _0566_
*719 _0567_
*720 _0568_
*721 _0569_
*722 _0570_
*723 _0571_
*724 _0572_
*725 _0573_
*726 _0574_
*727 _0575_
*728 _0576_
*729 _0577_
*730 _0578_
*731 _0579_
*732 _0580_
*733 _0581_
*734 _0582_
*735 _0583_
*736 _0584_
*737 _0585_
*738 _0586_
*739 _0587_
*740 _0588_
*741 _0589_
*742 _0590_
*743 _0591_
*744 _0592_
*745 _0593_
*746 _0594_
*747 _0595_
*748 _0596_
*749 _0597_
*750 _0598_
*751 _0599_
*752 _0600_
*753 _0601_
*754 _0602_
*755 _0603_
*756 _0604_
*757 _0605_
*758 _0606_
*759 _0607_
*760 _0608_
*761 _0609_
*762 _0610_
*763 _0611_
*764 _0612_
*765 _0613_
*766 _0614_
*767 _0615_
*768 _0616_
*769 _0617_
*770 _0618_
*771 _0619_
*772 _0620_
*773 _0621_
*774 _0622_
*775 _0623_
*776 _0624_
*777 _0625_
*778 _0626_
*779 _0627_
*780 _0628_
*781 _0629_
*782 _0630_
*783 _0631_
*784 _0632_
*785 _0633_
*786 _0634_
*787 _0635_
*788 _0636_
*789 _0637_
*790 _0638_
*791 _0639_
*792 _0640_
*793 _0641_
*794 _0642_
*795 _0643_
*796 _0644_
*797 _0645_
*798 _0646_
*799 _0647_
*800 _0648_
*801 _0649_
*802 _0650_
*803 _0651_
*804 _0652_
*805 _0653_
*806 _0654_
*807 _0655_
*808 _0656_
*809 _0657_
*810 _0658_
*811 _0659_
*812 _0660_
*813 _0661_
*814 _0662_
*815 _0663_
*816 _0664_
*817 _0665_
*818 _0666_
*819 _0667_
*820 _0668_
*821 _0669_
*822 _0670_
*823 _0671_
*824 _0672_
*825 _0673_
*826 _0674_
*827 _0675_
*828 _0676_
*829 _0677_
*830 _0678_
*831 _0679_
*832 _0680_
*833 _0681_
*834 _0682_
*835 _0683_
*836 _0684_
*837 _0685_
*838 _0686_
*839 _0687_
*840 _0688_
*841 _0689_
*842 _0690_
*843 _0691_
*844 _0692_
*845 _0693_
*846 _0694_
*847 _0695_
*848 _0696_
*849 _0697_
*850 _0698_
*851 _0699_
*852 _0700_
*853 _0701_
*854 _0702_
*855 _0703_
*856 _0704_
*857 _0705_
*858 _0706_
*859 _0707_
*860 _0708_
*861 _0709_
*862 _0710_
*863 _0711_
*864 _0712_
*865 _0713_
*866 _0714_
*867 _0715_
*868 _0716_
*869 _0717_
*870 _0718_
*871 _0719_
*872 _0720_
*873 _0721_
*874 _0722_
*875 _0723_
*876 _0724_
*877 _0725_
*878 _0726_
*879 _0727_
*880 _0728_
*881 _0729_
*882 _0730_
*883 _0731_
*884 _0732_
*885 _0733_
*886 _0734_
*887 _0735_
*888 _0736_
*889 _0737_
*890 _0738_
*891 _0739_
*892 _0740_
*893 _0741_
*894 _0742_
*895 _0743_
*896 _0744_
*897 _0745_
*898 _0746_
*899 _0747_
*900 _0748_
*901 _0749_
*902 _0750_
*903 _0751_
*904 _0752_
*905 _0753_
*906 _0754_
*907 _0755_
*908 _0756_
*909 _0757_
*910 _0758_
*911 _0759_
*912 _0760_
*913 _0761_
*914 _0762_
*915 _0763_
*916 _0764_
*917 _0765_
*918 _0766_
*919 _0767_
*920 _0768_
*921 _0769_
*922 _0770_
*923 _0771_
*924 _0772_
*925 _0773_
*926 _0774_
*927 _0775_
*928 _0776_
*929 _0777_
*930 _0778_
*931 _0779_
*932 _0780_
*933 _0781_
*934 _0782_
*935 _0783_
*936 _0784_
*937 _0785_
*938 _0786_
*939 _0787_
*940 _0788_
*941 _0789_
*942 _0790_
*943 _0791_
*944 _0792_
*945 _0793_
*946 _0794_
*947 _0795_
*948 _0796_
*949 _0797_
*950 _0798_
*951 _0799_
*952 _0800_
*953 _0801_
*954 _0802_
*955 _0803_
*956 _0804_
*957 _0805_
*958 _0806_
*959 _0807_
*960 _0808_
*961 _0809_
*962 _0810_
*963 _0811_
*964 _0812_
*965 _0813_
*966 _0814_
*967 _0815_
*968 _0816_
*969 _0817_
*970 _0818_
*971 _0819_
*972 _0820_
*973 _0821_
*974 _0822_
*975 _0823_
*976 _0824_
*977 _0825_
*978 _0826_
*979 _0827_
*980 _0828_
*981 _0829_
*982 _0830_
*983 _0831_
*984 _0832_
*985 _0833_
*986 _0834_
*987 _0835_
*988 _0836_
*989 _0837_
*990 _0838_
*991 _0839_
*992 _0840_
*993 _0841_
*994 _0842_
*995 _0843_
*996 _0844_
*997 _0845_
*998 _0846_
*999 _0847_
*1000 _0848_
*1001 _0849_
*1002 _0850_
*1003 _0851_
*1004 _0852_
*1005 _0853_
*1006 _0854_
*1007 _0855_
*1008 _0856_
*1009 _0857_
*1010 _0858_
*1011 _0859_
*1012 _0860_
*1013 _0861_
*1014 _0862_
*1015 _0863_
*1016 _0864_
*1017 _0865_
*1018 _0866_
*1019 _0867_
*1020 _0868_
*1021 _0869_
*1022 _0870_
*1023 _0871_
*1024 _0872_
*1025 _0873_
*1026 _0874_
*1027 _0875_
*1028 _0876_
*1029 _0877_
*1030 _0878_
*1031 _0879_
*1032 _0880_
*1033 _0881_
*1034 _0882_
*1035 _0883_
*1036 _0884_
*1037 _0885_
*1038 _0886_
*1039 _0887_
*1040 _0888_
*1041 _0889_
*1042 _0890_
*1043 _0891_
*1044 _0892_
*1045 _0893_
*1046 clknet_0_clk
*1047 clknet_2_0__leaf_clk
*1048 clknet_2_1__leaf_clk
*1049 clknet_2_2__leaf_clk
*1050 clknet_2_3__leaf_clk
*1051 clknet_leaf_0_clk
*1052 clknet_leaf_10_clk
*1053 clknet_leaf_11_clk
*1054 clknet_leaf_12_clk
*1055 clknet_leaf_13_clk
*1056 clknet_leaf_14_clk
*1057 clknet_leaf_15_clk
*1058 clknet_leaf_16_clk
*1059 clknet_leaf_17_clk
*1060 clknet_leaf_18_clk
*1061 clknet_leaf_19_clk
*1062 clknet_leaf_1_clk
*1063 clknet_leaf_20_clk
*1064 clknet_leaf_21_clk
*1065 clknet_leaf_22_clk
*1066 clknet_leaf_23_clk
*1067 clknet_leaf_24_clk
*1068 clknet_leaf_25_clk
*1069 clknet_leaf_26_clk
*1070 clknet_leaf_27_clk
*1071 clknet_leaf_28_clk
*1072 clknet_leaf_29_clk
*1073 clknet_leaf_2_clk
*1074 clknet_leaf_30_clk
*1075 clknet_leaf_3_clk
*1076 clknet_leaf_4_clk
*1077 clknet_leaf_5_clk
*1078 clknet_leaf_6_clk
*1079 clknet_leaf_7_clk
*1080 clknet_leaf_8_clk
*1081 clknet_leaf_9_clk
*1082 mem\[0\]\[0\]
*1083 mem\[0\]\[10\]
*1084 mem\[0\]\[11\]
*1085 mem\[0\]\[12\]
*1086 mem\[0\]\[13\]
*1087 mem\[0\]\[14\]
*1088 mem\[0\]\[15\]
*1089 mem\[0\]\[16\]
*1090 mem\[0\]\[17\]
*1091 mem\[0\]\[18\]
*1092 mem\[0\]\[19\]
*1093 mem\[0\]\[1\]
*1094 mem\[0\]\[20\]
*1095 mem\[0\]\[21\]
*1096 mem\[0\]\[22\]
*1097 mem\[0\]\[23\]
*1098 mem\[0\]\[24\]
*1099 mem\[0\]\[25\]
*1100 mem\[0\]\[26\]
*1101 mem\[0\]\[27\]
*1102 mem\[0\]\[28\]
*1103 mem\[0\]\[29\]
*1104 mem\[0\]\[2\]
*1105 mem\[0\]\[30\]
*1106 mem\[0\]\[31\]
*1107 mem\[0\]\[32\]
*1108 mem\[0\]\[33\]
*1109 mem\[0\]\[34\]
*1110 mem\[0\]\[35\]
*1111 mem\[0\]\[36\]
*1112 mem\[0\]\[37\]
*1113 mem\[0\]\[38\]
*1114 mem\[0\]\[39\]
*1115 mem\[0\]\[3\]
*1116 mem\[0\]\[40\]
*1117 mem\[0\]\[41\]
*1118 mem\[0\]\[42\]
*1119 mem\[0\]\[43\]
*1120 mem\[0\]\[44\]
*1121 mem\[0\]\[45\]
*1122 mem\[0\]\[46\]
*1123 mem\[0\]\[47\]
*1124 mem\[0\]\[48\]
*1125 mem\[0\]\[49\]
*1126 mem\[0\]\[4\]
*1127 mem\[0\]\[50\]
*1128 mem\[0\]\[51\]
*1129 mem\[0\]\[52\]
*1130 mem\[0\]\[53\]
*1131 mem\[0\]\[54\]
*1132 mem\[0\]\[55\]
*1133 mem\[0\]\[56\]
*1134 mem\[0\]\[57\]
*1135 mem\[0\]\[58\]
*1136 mem\[0\]\[59\]
*1137 mem\[0\]\[5\]
*1138 mem\[0\]\[60\]
*1139 mem\[0\]\[61\]
*1140 mem\[0\]\[62\]
*1141 mem\[0\]\[63\]
*1142 mem\[0\]\[64\]
*1143 mem\[0\]\[65\]
*1144 mem\[0\]\[66\]
*1145 mem\[0\]\[67\]
*1146 mem\[0\]\[68\]
*1147 mem\[0\]\[69\]
*1148 mem\[0\]\[6\]
*1149 mem\[0\]\[70\]
*1150 mem\[0\]\[71\]
*1151 mem\[0\]\[7\]
*1152 mem\[0\]\[8\]
*1153 mem\[0\]\[9\]
*1154 mem\[1\]\[0\]
*1155 mem\[1\]\[10\]
*1156 mem\[1\]\[11\]
*1157 mem\[1\]\[12\]
*1158 mem\[1\]\[13\]
*1159 mem\[1\]\[14\]
*1160 mem\[1\]\[15\]
*1161 mem\[1\]\[16\]
*1162 mem\[1\]\[17\]
*1163 mem\[1\]\[18\]
*1164 mem\[1\]\[19\]
*1165 mem\[1\]\[1\]
*1166 mem\[1\]\[20\]
*1167 mem\[1\]\[21\]
*1168 mem\[1\]\[22\]
*1169 mem\[1\]\[23\]
*1170 mem\[1\]\[24\]
*1171 mem\[1\]\[25\]
*1172 mem\[1\]\[26\]
*1173 mem\[1\]\[27\]
*1174 mem\[1\]\[28\]
*1175 mem\[1\]\[29\]
*1176 mem\[1\]\[2\]
*1177 mem\[1\]\[30\]
*1178 mem\[1\]\[31\]
*1179 mem\[1\]\[32\]
*1180 mem\[1\]\[33\]
*1181 mem\[1\]\[34\]
*1182 mem\[1\]\[35\]
*1183 mem\[1\]\[36\]
*1184 mem\[1\]\[37\]
*1185 mem\[1\]\[38\]
*1186 mem\[1\]\[39\]
*1187 mem\[1\]\[3\]
*1188 mem\[1\]\[40\]
*1189 mem\[1\]\[41\]
*1190 mem\[1\]\[42\]
*1191 mem\[1\]\[43\]
*1192 mem\[1\]\[44\]
*1193 mem\[1\]\[45\]
*1194 mem\[1\]\[46\]
*1195 mem\[1\]\[47\]
*1196 mem\[1\]\[48\]
*1197 mem\[1\]\[49\]
*1198 mem\[1\]\[4\]
*1199 mem\[1\]\[50\]
*1200 mem\[1\]\[51\]
*1201 mem\[1\]\[52\]
*1202 mem\[1\]\[53\]
*1203 mem\[1\]\[54\]
*1204 mem\[1\]\[55\]
*1205 mem\[1\]\[56\]
*1206 mem\[1\]\[57\]
*1207 mem\[1\]\[58\]
*1208 mem\[1\]\[59\]
*1209 mem\[1\]\[5\]
*1210 mem\[1\]\[60\]
*1211 mem\[1\]\[61\]
*1212 mem\[1\]\[62\]
*1213 mem\[1\]\[63\]
*1214 mem\[1\]\[64\]
*1215 mem\[1\]\[65\]
*1216 mem\[1\]\[66\]
*1217 mem\[1\]\[67\]
*1218 mem\[1\]\[68\]
*1219 mem\[1\]\[69\]
*1220 mem\[1\]\[6\]
*1221 mem\[1\]\[70\]
*1222 mem\[1\]\[71\]
*1223 mem\[1\]\[7\]
*1224 mem\[1\]\[8\]
*1225 mem\[1\]\[9\]
*1226 mem\[2\]\[0\]
*1227 mem\[2\]\[10\]
*1228 mem\[2\]\[11\]
*1229 mem\[2\]\[12\]
*1230 mem\[2\]\[13\]
*1231 mem\[2\]\[14\]
*1232 mem\[2\]\[15\]
*1233 mem\[2\]\[16\]
*1234 mem\[2\]\[17\]
*1235 mem\[2\]\[18\]
*1236 mem\[2\]\[19\]
*1237 mem\[2\]\[1\]
*1238 mem\[2\]\[20\]
*1239 mem\[2\]\[21\]
*1240 mem\[2\]\[22\]
*1241 mem\[2\]\[23\]
*1242 mem\[2\]\[24\]
*1243 mem\[2\]\[25\]
*1244 mem\[2\]\[26\]
*1245 mem\[2\]\[27\]
*1246 mem\[2\]\[28\]
*1247 mem\[2\]\[29\]
*1248 mem\[2\]\[2\]
*1249 mem\[2\]\[30\]
*1250 mem\[2\]\[31\]
*1251 mem\[2\]\[32\]
*1252 mem\[2\]\[33\]
*1253 mem\[2\]\[34\]
*1254 mem\[2\]\[35\]
*1255 mem\[2\]\[36\]
*1256 mem\[2\]\[37\]
*1257 mem\[2\]\[38\]
*1258 mem\[2\]\[39\]
*1259 mem\[2\]\[3\]
*1260 mem\[2\]\[40\]
*1261 mem\[2\]\[41\]
*1262 mem\[2\]\[42\]
*1263 mem\[2\]\[43\]
*1264 mem\[2\]\[44\]
*1265 mem\[2\]\[45\]
*1266 mem\[2\]\[46\]
*1267 mem\[2\]\[47\]
*1268 mem\[2\]\[48\]
*1269 mem\[2\]\[49\]
*1270 mem\[2\]\[4\]
*1271 mem\[2\]\[50\]
*1272 mem\[2\]\[51\]
*1273 mem\[2\]\[52\]
*1274 mem\[2\]\[53\]
*1275 mem\[2\]\[54\]
*1276 mem\[2\]\[55\]
*1277 mem\[2\]\[56\]
*1278 mem\[2\]\[57\]
*1279 mem\[2\]\[58\]
*1280 mem\[2\]\[59\]
*1281 mem\[2\]\[5\]
*1282 mem\[2\]\[60\]
*1283 mem\[2\]\[61\]
*1284 mem\[2\]\[62\]
*1285 mem\[2\]\[63\]
*1286 mem\[2\]\[64\]
*1287 mem\[2\]\[65\]
*1288 mem\[2\]\[66\]
*1289 mem\[2\]\[67\]
*1290 mem\[2\]\[68\]
*1291 mem\[2\]\[69\]
*1292 mem\[2\]\[6\]
*1293 mem\[2\]\[70\]
*1294 mem\[2\]\[71\]
*1295 mem\[2\]\[7\]
*1296 mem\[2\]\[8\]
*1297 mem\[2\]\[9\]
*1298 mem\[3\]\[0\]
*1299 mem\[3\]\[10\]
*1300 mem\[3\]\[11\]
*1301 mem\[3\]\[12\]
*1302 mem\[3\]\[13\]
*1303 mem\[3\]\[14\]
*1304 mem\[3\]\[15\]
*1305 mem\[3\]\[16\]
*1306 mem\[3\]\[17\]
*1307 mem\[3\]\[18\]
*1308 mem\[3\]\[19\]
*1309 mem\[3\]\[1\]
*1310 mem\[3\]\[20\]
*1311 mem\[3\]\[21\]
*1312 mem\[3\]\[22\]
*1313 mem\[3\]\[23\]
*1314 mem\[3\]\[24\]
*1315 mem\[3\]\[25\]
*1316 mem\[3\]\[26\]
*1317 mem\[3\]\[27\]
*1318 mem\[3\]\[28\]
*1319 mem\[3\]\[29\]
*1320 mem\[3\]\[2\]
*1321 mem\[3\]\[30\]
*1322 mem\[3\]\[31\]
*1323 mem\[3\]\[32\]
*1324 mem\[3\]\[33\]
*1325 mem\[3\]\[34\]
*1326 mem\[3\]\[35\]
*1327 mem\[3\]\[36\]
*1328 mem\[3\]\[37\]
*1329 mem\[3\]\[38\]
*1330 mem\[3\]\[39\]
*1331 mem\[3\]\[3\]
*1332 mem\[3\]\[40\]
*1333 mem\[3\]\[41\]
*1334 mem\[3\]\[42\]
*1335 mem\[3\]\[43\]
*1336 mem\[3\]\[44\]
*1337 mem\[3\]\[45\]
*1338 mem\[3\]\[46\]
*1339 mem\[3\]\[47\]
*1340 mem\[3\]\[48\]
*1341 mem\[3\]\[49\]
*1342 mem\[3\]\[4\]
*1343 mem\[3\]\[50\]
*1344 mem\[3\]\[51\]
*1345 mem\[3\]\[52\]
*1346 mem\[3\]\[53\]
*1347 mem\[3\]\[54\]
*1348 mem\[3\]\[55\]
*1349 mem\[3\]\[56\]
*1350 mem\[3\]\[57\]
*1351 mem\[3\]\[58\]
*1352 mem\[3\]\[59\]
*1353 mem\[3\]\[5\]
*1354 mem\[3\]\[60\]
*1355 mem\[3\]\[61\]
*1356 mem\[3\]\[62\]
*1357 mem\[3\]\[63\]
*1358 mem\[3\]\[64\]
*1359 mem\[3\]\[65\]
*1360 mem\[3\]\[66\]
*1361 mem\[3\]\[67\]
*1362 mem\[3\]\[68\]
*1363 mem\[3\]\[69\]
*1364 mem\[3\]\[6\]
*1365 mem\[3\]\[70\]
*1366 mem\[3\]\[71\]
*1367 mem\[3\]\[7\]
*1368 mem\[3\]\[8\]
*1369 mem\[3\]\[9\]
*1370 net1
*1371 net10
*1372 net100
*1373 net101
*1374 net102
*1375 net103
*1376 net104
*1377 net105
*1378 net106
*1379 net107
*1380 net108
*1381 net109
*1382 net11
*1383 net110
*1384 net111
*1385 net112
*1386 net113
*1387 net114
*1388 net115
*1389 net116
*1390 net117
*1391 net118
*1392 net119
*1393 net12
*1394 net120
*1395 net121
*1396 net122
*1397 net123
*1398 net124
*1399 net125
*1400 net126
*1401 net127
*1402 net128
*1403 net129
*1404 net13
*1405 net130
*1406 net131
*1407 net132
*1408 net133
*1409 net134
*1410 net135
*1411 net136
*1412 net137
*1413 net138
*1414 net139
*1415 net14
*1416 net140
*1417 net141
*1418 net142
*1419 net143
*1420 net144
*1421 net145
*1422 net146
*1423 net147
*1424 net148
*1425 net149
*1426 net15
*1427 net150
*1428 net151
*1429 net152
*1430 net153
*1431 net154
*1432 net155
*1433 net156
*1434 net157
*1435 net158
*1436 net159
*1437 net16
*1438 net160
*1439 net161
*1440 net162
*1441 net163
*1442 net164
*1443 net165
*1444 net166
*1445 net167
*1446 net168
*1447 net169
*1448 net17
*1449 net170
*1450 net171
*1451 net172
*1452 net173
*1453 net174
*1454 net175
*1455 net176
*1456 net177
*1457 net178
*1458 net179
*1459 net18
*1460 net180
*1461 net181
*1462 net182
*1463 net183
*1464 net184
*1465 net185
*1466 net186
*1467 net187
*1468 net188
*1469 net189
*1470 net19
*1471 net190
*1472 net191
*1473 net192
*1474 net193
*1475 net194
*1476 net195
*1477 net196
*1478 net197
*1479 net198
*1480 net199
*1481 net2
*1482 net20
*1483 net200
*1484 net201
*1485 net202
*1486 net203
*1487 net204
*1488 net205
*1489 net206
*1490 net207
*1491 net208
*1492 net209
*1493 net21
*1494 net210
*1495 net211
*1496 net212
*1497 net213
*1498 net214
*1499 net215
*1500 net216
*1501 net217
*1502 net218
*1503 net219
*1504 net22
*1505 net220
*1506 net221
*1507 net222
*1508 net223
*1509 net224
*1510 net225
*1511 net226
*1512 net227
*1513 net228
*1514 net229
*1515 net23
*1516 net230
*1517 net231
*1518 net232
*1519 net233
*1520 net234
*1521 net235
*1522 net236
*1523 net237
*1524 net238
*1525 net239
*1526 net24
*1527 net240
*1528 net241
*1529 net242
*1530 net243
*1531 net244
*1532 net245
*1533 net246
*1534 net247
*1535 net248
*1536 net249
*1537 net25
*1538 net250
*1539 net251
*1540 net252
*1541 net253
*1542 net254
*1543 net255
*1544 net256
*1545 net257
*1546 net258
*1547 net259
*1548 net26
*1549 net260
*1550 net261
*1551 net262
*1552 net263
*1553 net264
*1554 net265
*1555 net266
*1556 net267
*1557 net268
*1558 net269
*1559 net27
*1560 net270
*1561 net271
*1562 net272
*1563 net273
*1564 net274
*1565 net275
*1566 net276
*1567 net277
*1568 net278
*1569 net279
*1570 net28
*1571 net280
*1572 net281
*1573 net282
*1574 net283
*1575 net284
*1576 net285
*1577 net286
*1578 net287
*1579 net288
*1580 net289
*1581 net29
*1582 net290
*1583 net291
*1584 net292
*1585 net293
*1586 net294
*1587 net295
*1588 net296
*1589 net297
*1590 net298
*1591 net299
*1592 net3
*1593 net30
*1594 net300
*1595 net301
*1596 net302
*1597 net303
*1598 net304
*1599 net305
*1600 net306
*1601 net307
*1602 net308
*1603 net309
*1604 net31
*1605 net310
*1606 net311
*1607 net312
*1608 net313
*1609 net314
*1610 net315
*1611 net316
*1612 net317
*1613 net318
*1614 net319
*1615 net32
*1616 net320
*1617 net321
*1618 net322
*1619 net323
*1620 net324
*1621 net325
*1622 net326
*1623 net327
*1624 net328
*1625 net329
*1626 net33
*1627 net330
*1628 net331
*1629 net332
*1630 net333
*1631 net334
*1632 net335
*1633 net336
*1634 net337
*1635 net338
*1636 net339
*1637 net34
*1638 net340
*1639 net341
*1640 net342
*1641 net343
*1642 net344
*1643 net345
*1644 net346
*1645 net347
*1646 net348
*1647 net349
*1648 net35
*1649 net350
*1650 net351
*1651 net352
*1652 net353
*1653 net354
*1654 net355
*1655 net356
*1656 net357
*1657 net358
*1658 net359
*1659 net36
*1660 net360
*1661 net361
*1662 net362
*1663 net363
*1664 net364
*1665 net365
*1666 net366
*1667 net367
*1668 net368
*1669 net369
*1670 net37
*1671 net370
*1672 net371
*1673 net372
*1674 net373
*1675 net374
*1676 net375
*1677 net376
*1678 net377
*1679 net378
*1680 net379
*1681 net38
*1682 net380
*1683 net381
*1684 net382
*1685 net383
*1686 net384
*1687 net385
*1688 net386
*1689 net387
*1690 net388
*1691 net389
*1692 net39
*1693 net390
*1694 net391
*1695 net392
*1696 net393
*1697 net394
*1698 net395
*1699 net396
*1700 net397
*1701 net398
*1702 net399
*1703 net4
*1704 net40
*1705 net400
*1706 net401
*1707 net402
*1708 net403
*1709 net404
*1710 net405
*1711 net406
*1712 net407
*1713 net408
*1714 net409
*1715 net41
*1716 net410
*1717 net411
*1718 net412
*1719 net413
*1720 net414
*1721 net415
*1722 net416
*1723 net417
*1724 net418
*1725 net419
*1726 net42
*1727 net420
*1728 net421
*1729 net422
*1730 net423
*1731 net424
*1732 net425
*1733 net426
*1734 net427
*1735 net428
*1736 net429
*1737 net43
*1738 net430
*1739 net431
*1740 net432
*1741 net433
*1742 net434
*1743 net435
*1744 net436
*1745 net437
*1746 net438
*1747 net439
*1748 net44
*1749 net440
*1750 net441
*1751 net442
*1752 net443
*1753 net444
*1754 net445
*1755 net446
*1756 net447
*1757 net448
*1758 net449
*1759 net45
*1760 net450
*1761 net451
*1762 net452
*1763 net453
*1764 net454
*1765 net455
*1766 net456
*1767 net457
*1768 net458
*1769 net459
*1770 net46
*1771 net460
*1772 net461
*1773 net462
*1774 net463
*1775 net464
*1776 net465
*1777 net466
*1778 net467
*1779 net468
*1780 net469
*1781 net47
*1782 net470
*1783 net471
*1784 net472
*1785 net473
*1786 net474
*1787 net475
*1788 net476
*1789 net477
*1790 net478
*1791 net479
*1792 net48
*1793 net480
*1794 net481
*1795 net482
*1796 net483
*1797 net484
*1798 net485
*1799 net486
*1800 net487
*1801 net488
*1802 net489
*1803 net49
*1804 net490
*1805 net491
*1806 net492
*1807 net493
*1808 net494
*1809 net495
*1810 net496
*1811 net497
*1812 net498
*1813 net499
*1814 net5
*1815 net50
*1816 net500
*1817 net501
*1818 net502
*1819 net503
*1820 net504
*1821 net505
*1822 net506
*1823 net507
*1824 net508
*1825 net509
*1826 net51
*1827 net510
*1828 net511
*1829 net512
*1830 net513
*1831 net514
*1832 net515
*1833 net516
*1834 net517
*1835 net518
*1836 net519
*1837 net52
*1838 net520
*1839 net521
*1840 net522
*1841 net523
*1842 net524
*1843 net525
*1844 net526
*1845 net527
*1846 net528
*1847 net529
*1848 net53
*1849 net530
*1850 net531
*1851 net532
*1852 net533
*1853 net534
*1854 net535
*1855 net536
*1856 net537
*1857 net538
*1858 net539
*1859 net54
*1860 net540
*1861 net541
*1862 net542
*1863 net543
*1864 net544
*1865 net545
*1866 net546
*1867 net547
*1868 net548
*1869 net549
*1870 net55
*1871 net550
*1872 net551
*1873 net552
*1874 net553
*1875 net554
*1876 net555
*1877 net556
*1878 net557
*1879 net558
*1880 net559
*1881 net56
*1882 net560
*1883 net561
*1884 net562
*1885 net563
*1886 net564
*1887 net565
*1888 net566
*1889 net567
*1890 net57
*1891 net58
*1892 net59
*1893 net6
*1894 net60
*1895 net61
*1896 net62
*1897 net63
*1898 net64
*1899 net65
*1900 net66
*1901 net67
*1902 net68
*1903 net69
*1904 net7
*1905 net70
*1906 net71
*1907 net72
*1908 net73
*1909 net74
*1910 net75
*1911 net76
*1912 net77
*1913 net78
*1914 net79
*1915 net8
*1916 net80
*1917 net81
*1918 net82
*1919 net83
*1920 net84
*1921 net85
*1922 net86
*1923 net87
*1924 net88
*1925 net89
*1926 net9
*1927 net90
*1928 net91
*1929 net92
*1930 net93
*1931 net94
*1932 net95
*1933 net96
*1934 net97
*1935 net98
*1936 net99
*1937 ANTENNA_1
*1938 ANTENNA_2
*1939 FILLER_0_0_105
*1940 FILLER_0_0_111
*1941 FILLER_0_0_113
*1942 FILLER_0_0_135
*1943 FILLER_0_0_15
*1944 FILLER_0_0_153
*1945 FILLER_0_0_161
*1946 FILLER_0_0_181
*1947 FILLER_0_0_188
*1948 FILLER_0_0_197
*1949 FILLER_0_0_202
*1950 FILLER_0_0_210
*1951 FILLER_0_0_221
*1952 FILLER_0_0_240
*1953 FILLER_0_0_244
*1954 FILLER_0_0_251
*1955 FILLER_0_0_253
*1956 FILLER_0_0_258
*1957 FILLER_0_0_268
*1958 FILLER_0_0_27
*1959 FILLER_0_0_275
*1960 FILLER_0_0_279
*1961 FILLER_0_0_281
*1962 FILLER_0_0_286
*1963 FILLER_0_0_29
*1964 FILLER_0_0_296
*1965 FILLER_0_0_3
*1966 FILLER_0_0_303
*1967 FILLER_0_0_307
*1968 FILLER_0_0_309
*1969 FILLER_0_0_321
*1970 FILLER_0_0_333
*1971 FILLER_0_0_337
*1972 FILLER_0_0_349
*1973 FILLER_0_0_361
*1974 FILLER_0_0_365
*1975 FILLER_0_0_369
*1976 FILLER_0_0_41
*1977 FILLER_0_0_49
*1978 FILLER_0_0_55
*1979 FILLER_0_0_57
*1980 FILLER_0_0_63
*1981 FILLER_0_0_70
*1982 FILLER_0_0_78
*1983 FILLER_0_0_83
*1984 FILLER_0_0_85
*1985 FILLER_0_0_90
*1986 FILLER_0_0_98
*1987 FILLER_0_10_148
*1988 FILLER_0_10_158
*1989 FILLER_0_10_176
*1990 FILLER_0_10_182
*1991 FILLER_0_10_192
*1992 FILLER_0_10_21
*1993 FILLER_0_10_213
*1994 FILLER_0_10_253
*1995 FILLER_0_10_27
*1996 FILLER_0_10_275
*1997 FILLER_0_10_284
*1998 FILLER_0_10_29
*1999 FILLER_0_10_306
*2000 FILLER_0_10_342
*2001 FILLER_0_10_365
*2002 FILLER_0_10_50
*2003 FILLER_0_10_67
*2004 FILLER_0_10_76
*2005 FILLER_0_10_88
*2006 FILLER_0_10_9
*2007 FILLER_0_11_106
*2008 FILLER_0_11_121
*2009 FILLER_0_11_129
*2010 FILLER_0_11_164
*2011 FILLER_0_11_169
*2012 FILLER_0_11_191
*2013 FILLER_0_11_21
*2014 FILLER_0_11_218
*2015 FILLER_0_11_234
*2016 FILLER_0_11_262
*2017 FILLER_0_11_274
*2018 FILLER_0_11_279
*2019 FILLER_0_11_297
*2020 FILLER_0_11_316
*2021 FILLER_0_11_33
*2022 FILLER_0_11_333
*2023 FILLER_0_11_346
*2024 FILLER_0_11_57
*2025 FILLER_0_11_66
*2026 FILLER_0_11_78
*2027 FILLER_0_11_9
*2028 FILLER_0_11_92
*2029 FILLER_0_12_116
*2030 FILLER_0_12_128
*2031 FILLER_0_12_144
*2032 FILLER_0_12_157
*2033 FILLER_0_12_174
*2034 FILLER_0_12_18
*2035 FILLER_0_12_183
*2036 FILLER_0_12_194
*2037 FILLER_0_12_213
*2038 FILLER_0_12_222
*2039 FILLER_0_12_249
*2040 FILLER_0_12_253
*2041 FILLER_0_12_259
*2042 FILLER_0_12_26
*2043 FILLER_0_12_271
*2044 FILLER_0_12_275
*2045 FILLER_0_12_29
*2046 FILLER_0_12_293
*2047 FILLER_0_12_304
*2048 FILLER_0_12_326
*2049 FILLER_0_12_35
*2050 FILLER_0_12_365
*2051 FILLER_0_12_39
*2052 FILLER_0_12_47
*2053 FILLER_0_12_6
*2054 FILLER_0_12_81
*2055 FILLER_0_12_88
*2056 FILLER_0_13_15
*2057 FILLER_0_13_167
*2058 FILLER_0_13_176
*2059 FILLER_0_13_188
*2060 FILLER_0_13_196
*2061 FILLER_0_13_213
*2062 FILLER_0_13_221