*SPEF "ieee 1481-1999"
*DESIGN "dff_ram_8x72"
*DATE "11:11:11 Fri 11 11, 1111"
*VENDOR "OpenRCX"
*PROGRAM "Parallel Extraction"
*VERSION "1.0"
*DESIGN_FLOW "NAME_SCOPE LOCAL" "PIN_CAP NONE"
*DIVIDER /
*DELIMITER :
*BUS_DELIMITER []
*T_UNIT 1 NS
*C_UNIT 1 PF
*R_UNIT 1 OHM
*L_UNIT 1 HENRY

*NAME_MAP
*3 address[0]
*4 address[1]
*5 address[2]
*6 clk
*7 rdata[0]
*8 rdata[10]
*9 rdata[11]
*10 rdata[12]
*11 rdata[13]
*12 rdata[14]
*13 rdata[15]
*14 rdata[16]
*15 rdata[17]
*16 rdata[18]
*17 rdata[19]
*18 rdata[1]
*19 rdata[20]
*20 rdata[21]
*21 rdata[22]
*22 rdata[23]
*23 rdata[24]
*24 rdata[25]
*25 rdata[26]
*26 rdata[27]
*27 rdata[28]
*28 rdata[29]
*29 rdata[2]
*30 rdata[30]
*31 rdata[31]
*32 rdata[32]
*33 rdata[33]
*34 rdata[34]
*35 rdata[35]
*36 rdata[36]
*37 rdata[37]
*38 rdata[38]
*39 rdata[39]
*40 rdata[3]
*41 rdata[40]
*42 rdata[41]
*43 rdata[42]
*44 rdata[43]
*45 rdata[44]
*46 rdata[45]
*47 rdata[46]
*48 rdata[47]
*49 rdata[48]
*50 rdata[49]
*51 rdata[4]
*52 rdata[50]
*53 rdata[51]
*54 rdata[52]
*55 rdata[53]
*56 rdata[54]
*57 rdata[55]
*58 rdata[56]
*59 rdata[57]
*60 rdata[58]
*61 rdata[59]
*62 rdata[5]
*63 rdata[60]
*64 rdata[61]
*65 rdata[62]
*66 rdata[63]
*67 rdata[64]
*68 rdata[65]
*69 rdata[66]
*70 rdata[67]
*71 rdata[68]
*72 rdata[69]
*73 rdata[6]
*74 rdata[70]
*75 rdata[71]
*76 rdata[7]
*77 rdata[8]
*78 rdata[9]
*79 wdata[0]
*80 wdata[10]
*81 wdata[11]
*82 wdata[12]
*83 wdata[13]
*84 wdata[14]
*85 wdata[15]
*86 wdata[16]
*87 wdata[17]
*88 wdata[18]
*89 wdata[19]
*90 wdata[1]
*91 wdata[20]
*92 wdata[21]
*93 wdata[22]
*94 wdata[23]
*95 wdata[24]
*96 wdata[25]
*97 wdata[26]
*98 wdata[27]
*99 wdata[28]
*100 wdata[29]
*101 wdata[2]
*102 wdata[30]
*103 wdata[31]
*104 wdata[32]
*105 wdata[33]
*106 wdata[34]
*107 wdata[35]
*108 wdata[36]
*109 wdata[37]
*110 wdata[38]
*111 wdata[39]
*112 wdata[3]
*113 wdata[40]
*114 wdata[41]
*115 wdata[42]
*116 wdata[43]
*117 wdata[44]
*118 wdata[45]
*119 wdata[46]
*120 wdata[47]
*121 wdata[48]
*122 wdata[49]
*123 wdata[4]
*124 wdata[50]
*125 wdata[51]
*126 wdata[52]
*127 wdata[53]
*128 wdata[54]
*129 wdata[55]
*130 wdata[56]
*131 wdata[57]
*132 wdata[58]
*133 wdata[59]
*134 wdata[5]
*135 wdata[60]
*136 wdata[61]
*137 wdata[62]
*138 wdata[63]
*139 wdata[64]
*140 wdata[65]
*141 wdata[66]
*142 wdata[67]
*143 wdata[68]
*144 wdata[69]
*145 wdata[6]
*146 wdata[70]
*147 wdata[71]
*148 wdata[7]
*149 wdata[8]
*150 wdata[9]
*151 wr_n
*152 _0000_
*153 _0001_
*154 _0002_
*155 _0003_
*156 _0004_
*157 _0005_
*158 _0006_
*159 _0007_
*160 _0008_
*161 _0009_
*162 _0010_
*163 _0011_
*164 _0012_
*165 _0013_
*166 _0014_
*167 _0015_
*168 _0016_
*169 _0017_
*170 _0018_
*171 _0019_
*172 _0020_
*173 _0021_
*174 _0022_
*175 _0023_
*176 _0024_
*177 _0025_
*178 _0026_
*179 _0027_
*180 _0028_
*181 _0029_
*182 _0030_
*183 _0031_
*184 _0032_
*185 _0033_
*186 _0034_
*187 _0035_
*188 _0036_
*189 _0037_
*190 _0038_
*191 _0039_
*192 _0040_
*193 _0041_
*194 _0042_
*195 _0043_
*196 _0044_
*197 _0045_
*198 _0046_
*199 _0047_
*200 _0048_
*201 _0049_
*202 _0050_
*203 _0051_
*204 _0052_
*205 _0053_
*206 _0054_
*207 _0055_
*208 _0056_
*209 _0057_
*210 _0058_
*211 _0059_
*212 _0060_
*213 _0061_
*214 _0062_
*215 _0063_
*216 _0064_
*217 _0065_
*218 _0066_
*219 _0067_
*220 _0068_
*221 _0069_
*222 _0070_
*223 _0071_
*224 _0072_
*225 _0073_
*226 _0074_
*227 _0075_
*228 _0076_
*229 _0077_
*230 _0078_
*231 _0079_
*232 _0080_
*233 _0081_
*234 _0082_
*235 _0083_
*236 _0084_
*237 _0085_
*238 _0086_
*239 _0087_
*240 _0088_
*241 _0089_
*242 _0090_
*243 _0091_
*244 _0092_
*245 _0093_
*246 _0094_
*247 _0095_
*248 _0096_
*249 _0097_
*250 _0098_
*251 _0099_
*252 _0100_
*253 _0101_
*254 _0102_
*255 _0103_
*256 _0104_
*257 _0105_
*258 _0106_
*259 _0107_
*260 _0108_
*261 _0109_
*262 _0110_
*263 _0111_
*264 _0112_
*265 _0113_
*266 _0114_
*267 _0115_
*268 _0116_
*269 _0117_
*270 _0118_
*271 _0119_
*272 _0120_
*273 _0121_
*274 _0122_
*275 _0123_
*276 _0124_
*277 _0125_
*278 _0126_
*279 _0127_
*280 _0128_
*281 _0129_
*282 _0130_
*283 _0131_
*284 _0132_
*285 _0133_
*286 _0134_
*287 _0135_
*288 _0136_
*289 _0137_
*290 _0138_
*291 _0139_
*292 _0140_
*293 _0141_
*294 _0142_
*295 _0143_
*296 _0144_
*297 _0145_
*298 _0146_
*299 _0147_
*300 _0148_
*301 _0149_
*302 _0150_
*303 _0151_
*304 _0152_
*305 _0153_
*306 _0154_
*307 _0155_
*308 _0156_
*309 _0157_
*310 _0158_
*311 _0159_
*312 _0160_
*313 _0161_
*314 _0162_
*315 _0163_
*316 _0164_
*317 _0165_
*318 _0166_
*319 _0167_
*320 _0168_
*321 _0169_
*322 _0170_
*323 _0171_
*324 _0172_
*325 _0173_
*326 _0174_
*327 _0175_
*328 _0176_
*329 _0177_
*330 _0178_
*331 _0179_
*332 _0180_
*333 _0181_
*334 _0182_
*335 _0183_
*336 _0184_
*337 _0185_
*338 _0186_
*339 _0187_
*340 _0188_
*341 _0189_
*342 _0190_
*343 _0191_
*344 _0192_
*345 _0193_
*346 _0194_
*347 _0195_
*348 _0196_
*349 _0197_
*350 _0198_
*351 _0199_
*352 _0200_
*353 _0201_
*354 _0202_
*355 _0203_
*356 _0204_
*357 _0205_
*358 _0206_
*359 _0207_
*360 _0208_
*361 _0209_
*362 _0210_
*363 _0211_
*364 _0212_
*365 _0213_
*366 _0214_
*367 _0215_
*368 _0216_
*369 _0217_
*370 _0218_
*371 _0219_
*372 _0220_
*373 _0221_
*374 _0222_
*375 _0223_
*376 _0224_
*377 _0225_
*378 _0226_
*379 _0227_
*380 _0228_
*381 _0229_
*382 _0230_
*383 _0231_
*384 _0232_
*385 _0233_
*386 _0234_
*387 _0235_
*388 _0236_
*389 _0237_
*390 _0238_
*391 _0239_
*392 _0240_
*393 _0241_
*394 _0242_
*395 _0243_
*396 _0244_
*397 _0245_
*398 _0246_
*399 _0247_
*400 _0248_
*401 _0249_
*402 _0250_
*403 _0251_
*404 _0252_
*405 _0253_
*406 _0254_
*407 _0255_
*408 _0256_
*409 _0257_
*410 _0258_
*411 _0259_
*412 _0260_
*413 _0261_
*414 _0262_
*415 _0263_
*416 _0264_
*417 _0265_
*418 _0266_
*419 _0267_
*420 _0268_
*421 _0269_
*422 _0270_
*423 _0271_
*424 _0272_
*425 _0273_
*426 _0274_
*427 _0275_
*428 _0276_
*429 _0277_
*430 _0278_
*431 _0279_
*432 _0280_
*433 _0281_
*434 _0282_
*435 _0283_
*436 _0284_
*437 _0285_
*438 _0286_
*439 _0287_
*440 _0288_
*441 _0289_
*442 _0290_
*443 _0291_
*444 _0292_
*445 _0293_
*446 _0294_
*447 _0295_
*448 _0296_
*449 _0297_
*450 _0298_
*451 _0299_
*452 _0300_
*453 _0301_
*454 _0302_
*455 _0303_
*456 _0304_
*457 _0305_
*458 _0306_
*459 _0307_
*460 _0308_
*461 _0309_
*462 _0310_
*463 _0311_
*464 _0312_
*465 _0313_
*466 _0314_
*467 _0315_
*468 _0316_
*469 _0317_
*470 _0318_
*471 _0319_
*472 _0320_
*473 _0321_
*474 _0322_
*475 _0323_
*476 _0324_
*477 _0325_
*478 _0326_
*479 _0327_
*480 _0328_
*481 _0329_
*482 _0330_
*483 _0331_
*484 _0332_
*485 _0333_
*486 _0334_
*487 _0335_
*488 _0336_
*489 _0337_
*490 _0338_
*491 _0339_
*492 _0340_
*493 _0341_
*494 _0342_
*495 _0343_
*496 _0344_
*497 _0345_
*498 _0346_
*499 _0347_
*500 _0348_
*501 _0349_
*502 _0350_
*503 _0351_
*504 _0352_
*505 _0353_
*506 _0354_
*507 _0355_
*508 _0356_
*509 _0357_
*510 _0358_
*511 _0359_
*512 _0360_
*513 _0361_
*514 _0362_
*515 _0363_
*516 _0364_
*517 _0365_
*518 _0366_
*519 _0367_
*520 _0368_
*521 _0369_
*522 _0370_
*523 _0371_
*524 _0372_
*525 _0373_
*526 _0374_
*527 _0375_
*528 _0376_
*529 _0377_
*530 _0378_
*531 _0379_
*532 _0380_
*533 _0381_
*534 _0382_
*535 _0383_
*536 _0384_
*537 _0385_
*538 _0386_
*539 _0387_
*540 _0388_
*541 _0389_
*542 _0390_
*543 _0391_
*544 _0392_
*545 _0393_
*546 _0394_
*547 _0395_
*548 _0396_
*549 _0397_
*550 _0398_
*551 _0399_
*552 _0400_
*553 _0401_
*554 _0402_
*555 _0403_
*556 _0404_
*557 _0405_
*558 _0406_
*559 _0407_
*560 _0408_
*561 _0409_
*562 _0410_
*563 _0411_
*564 _0412_
*565 _0413_
*566 _0414_
*567 _0415_
*568 _0416_
*569 _0417_
*570 _0418_
*571 _0419_
*572 _0420_
*573 _0421_
*574 _0422_
*575 _0423_
*576 _0424_
*577 _0425_
*578 _0426_
*579 _0427_
*580 _0428_
*581 _0429_
*582 _0430_
*583 _0431_
*584 _0432_
*585 _0433_
*586 _0434_
*587 _0435_
*588 _0436_
*589 _0437_
*590 _0438_
*591 _0439_
*592 _0440_
*593 _0441_
*594 _0442_
*595 _0443_
*596 _0444_
*597 _0445_
*598 _0446_
*599 _0447_
*600 _0448_
*601 _0449_
*602 _0450_
*603 _0451_
*604 _0452_
*605 _0453_
*606 _0454_
*607 _0455_
*608 _0456_
*609 _0457_
*610 _0458_
*611 _0459_
*612 _0460_
*613 _0461_
*614 _0462_
*615 _0463_
*616 _0464_
*617 _0465_
*618 _0466_
*619 _0467_
*620 _0468_
*621 _0469_
*622 _0470_
*623 _0471_
*624 _0472_
*625 _0473_
*626 _0474_
*627 _0475_
*628 _0476_
*629 _0477_
*630 _0478_
*631 _0479_
*632 _0480_
*633 _0481_
*634 _0482_
*635 _0483_
*636 _0484_
*637 _0485_
*638 _0486_
*639 _0487_
*640 _0488_
*641 _0489_
*642 _0490_
*643 _0491_
*644 _0492_
*645 _0493_
*646 _0494_
*647 _0495_
*648 _0496_
*649 _0497_
*650 _0498_
*651 _0499_
*652 _0500_
*653 _0501_
*654 _0502_
*655 _0503_
*656 _0504_
*657 _0505_
*658 _0506_
*659 _0507_
*660 _0508_
*661 _0509_
*662 _0510_
*663 _0511_
*664 _0512_
*665 _0513_
*666 _0514_
*667 _0515_
*668 _0516_
*669 _0517_
*670 _0518_
*671 _0519_
*672 _0520_
*673 _0521_
*674 _0522_
*675 _0523_
*676 _0524_
*677 _0525_
*678 _0526_
*679 _0527_
*680 _0528_
*681 _0529_
*682 _0530_
*683 _0531_
*684 _0532_
*685 _0533_
*686 _0534_
*687 _0535_
*688 _0536_
*689 _0537_
*690 _0538_
*691 _0539_
*692 _0540_
*693 _0541_
*694 _0542_
*695 _0543_
*696 _0544_
*697 _0545_
*698 _0546_
*699 _0547_
*700 _0548_
*701 _0549_
*702 _0550_
*703 _0551_
*704 _0552_
*705 _0553_
*706 _0554_
*707 _0555_
*708 _0556_
*709 _0557_
*710 _0558_
*711 _0559_
*712 _0560_
*713 _0561_
*714 _0562_
*715 _0563_
*716 _0564_
*717 _0565_
*718 _0566_
*719 _0567_
*720 _0568_
*721 _0569_
*722 _0570_
*723 _0571_
*724 _0572_
*725 _0573_
*726 _0574_
*727 _0575_
*728 _0576_
*729 _0577_
*730 _0578_
*731 _0579_
*732 _0580_
*733 _0581_
*734 _0582_
*735 _0583_
*736 _0584_
*737 _0585_
*738 _0586_
*739 _0587_
*740 _0588_
*741 _0589_
*742 _0590_
*743 _0591_
*744 _0592_
*745 _0593_
*746 _0594_
*747 _0595_
*748 _0596_
*749 _0597_
*750 _0598_
*751 _0599_
*752 _0600_
*753 _0601_
*754 _0602_
*755 _0603_
*756 _0604_
*757 _0605_
*758 _0606_
*759 _0607_
*760 _0608_
*761 _0609_
*762 _0610_
*763 _0611_
*764 _0612_
*765 _0613_
*766 _0614_
*767 _0615_
*768 _0616_
*769 _0617_
*770 _0618_
*771 _0619_
*772 _0620_
*773 _0621_
*774 _0622_
*775 _0623_
*776 _0624_
*777 _0625_
*778 _0626_
*779 _0627_
*780 _0628_
*781 _0629_
*782 _0630_
*783 _0631_
*784 _0632_
*785 _0633_
*786 _0634_
*787 _0635_
*788 _0636_
*789 _0637_
*790 _0638_
*791 _0639_
*792 _0640_
*793 _0641_
*794 _0642_
*795 _0643_
*796 _0644_
*797 _0645_
*798 _0646_
*799 _0647_
*800 _0648_
*801 _0649_
*802 _0650_
*803 _0651_
*804 _0652_
*805 _0653_
*806 _0654_
*807 _0655_
*808 _0656_
*809 _0657_
*810 _0658_
*811 _0659_
*812 _0660_
*813 _0661_
*814 _0662_
*815 _0663_
*816 _0664_
*817 _0665_
*818 _0666_
*819 _0667_
*820 _0668_
*821 _0669_
*822 _0670_
*823 _0671_
*824 _0672_
*825 _0673_
*826 _0674_
*827 _0675_
*828 _0676_
*829 _0677_
*830 _0678_
*831 _0679_
*832 _0680_
*833 _0681_
*834 _0682_
*835 _0683_
*836 _0684_
*837 _0685_
*838 _0686_
*839 _0687_
*840 _0688_
*841 _0689_
*842 _0690_
*843 _0691_
*844 _0692_
*845 _0693_
*846 _0694_
*847 _0695_
*848 _0696_
*849 _0697_
*850 _0698_
*851 _0699_
*852 _0700_
*853 _0701_
*854 _0702_
*855 _0703_
*856 _0704_
*857 _0705_
*858 _0706_
*859 _0707_
*860 _0708_
*861 _0709_
*862 _0710_
*863 _0711_
*864 _0712_
*865 _0713_
*866 _0714_
*867 _0715_
*868 _0716_
*869 _0717_
*870 _0718_
*871 _0719_
*872 _0720_
*873 _0721_
*874 _0722_
*875 _0723_
*876 _0724_
*877 _0725_
*878 _0726_
*879 _0727_
*880 _0728_
*881 _0729_
*882 _0730_
*883 _0731_
*884 _0732_
*885 _0733_
*886 _0734_
*887 _0735_
*888 _0736_
*889 _0737_
*890 _0738_
*891 _0739_
*892 _0740_
*893 _0741_
*894 _0742_
*895 _0743_
*896 _0744_
*897 _0745_
*898 _0746_
*899 _0747_
*900 _0748_
*901 _0749_
*902 _0750_
*903 _0751_
*904 _0752_
*905 _0753_
*906 _0754_
*907 _0755_
*908 _0756_
*909 _0757_
*910 _0758_
*911 _0759_
*912 _0760_
*913 _0761_
*914 _0762_
*915 _0763_
*916 _0764_
*917 _0765_
*918 _0766_
*919 _0767_
*920 _0768_
*921 _0769_
*922 _0770_
*923 _0771_
*924 _0772_
*925 _0773_
*926 _0774_
*927 _0775_
*928 _0776_
*929 _0777_
*930 _0778_
*931 _0779_
*932 _0780_
*933 _0781_
*934 _0782_
*935 _0783_
*936 _0784_
*937 _0785_
*938 _0786_
*939 _0787_
*940 _0788_
*941 _0789_
*942 _0790_
*943 _0791_
*944 _0792_
*945 _0793_
*946 _0794_
*947 _0795_
*948 _0796_
*949 _0797_
*950 _0798_
*951 _0799_
*952 _0800_
*953 _0801_
*954 _0802_
*955 _0803_
*956 _0804_
*957 _0805_
*958 _0806_
*959 _0807_
*960 _0808_
*961 _0809_
*962 _0810_
*963 _0811_
*964 _0812_
*965 _0813_
*966 _0814_
*967 _0815_
*968 _0816_
*969 _0817_
*970 _0818_
*971 _0819_
*972 _0820_
*973 _0821_
*974 _0822_
*975 _0823_
*976 _0824_
*977 _0825_
*978 _0826_
*979 _0827_
*980 _0828_
*981 _0829_
*982 _0830_
*983 _0831_
*984 _0832_
*985 _0833_
*986 _0834_
*987 _0835_
*988 _0836_
*989 _0837_
*990 _0838_
*991 _0839_
*992 _0840_
*993 _0841_
*994 _0842_
*995 _0843_
*996 _0844_
*997 _0845_
*998 _0846_
*999 _0847_
*1000 _0848_
*1001 _0849_
*1002 _0850_
*1003 _0851_
*1004 _0852_
*1005 _0853_
*1006 _0854_
*1007 _0855_
*1008 _0856_
*1009 _0857_
*1010 _0858_
*1011 _0859_
*1012 _0860_
*1013 _0861_
*1014 _0862_
*1015 _0863_
*1016 _0864_
*1017 _0865_
*1018 _0866_
*1019 _0867_
*1020 _0868_
*1021 _0869_
*1022 _0870_
*1023 _0871_
*1024 _0872_
*1025 _0873_
*1026 _0874_
*1027 _0875_
*1028 _0876_
*1029 _0877_
*1030 _0878_
*1031 _0879_
*1032 _0880_
*1033 _0881_
*1034 _0882_
*1035 _0883_
*1036 _0884_
*1037 _0885_
*1038 _0886_
*1039 _0887_
*1040 _0888_
*1041 _0889_
*1042 _0890_
*1043 _0891_
*1044 _0892_
*1045 _0893_
*1046 _0894_
*1047 _0895_
*1048 _0896_
*1049 _0897_
*1050 _0898_
*1051 _0899_
*1052 _0900_
*1053 _0901_
*1054 _0902_
*1055 _0903_
*1056 _0904_
*1057 _0905_
*1058 _0906_
*1059 _0907_
*1060 _0908_
*1061 _0909_
*1062 _0910_
*1063 _0911_
*1064 _0912_
*1065 _0913_
*1066 _0914_
*1067 _0915_
*1068 _0916_
*1069 _0917_
*1070 _0918_
*1071 _0919_
*1072 _0920_
*1073 _0921_
*1074 _0922_
*1075 _0923_
*1076 _0924_
*1077 _0925_
*1078 _0926_
*1079 _0927_
*1080 _0928_
*1081 _0929_
*1082 _0930_
*1083 _0931_
*1084 _0932_
*1085 _0933_
*1086 _0934_
*1087 _0935_
*1088 _0936_
*1089 _0937_
*1090 _0938_
*1091 _0939_
*1092 _0940_
*1093 _0941_
*1094 _0942_
*1095 _0943_
*1096 _0944_
*1097 _0945_
*1098 _0946_
*1099 _0947_
*1100 _0948_
*1101 _0949_
*1102 _0950_
*1103 _0951_
*1104 _0952_
*1105 _0953_
*1106 _0954_
*1107 _0955_
*1108 _0956_
*1109 _0957_
*1110 _0958_
*1111 _0959_
*1112 _0960_
*1113 _0961_
*1114 _0962_
*1115 _0963_
*1116 _0964_
*1117 _0965_
*1118 _0966_
*1119 _0967_
*1120 _0968_
*1121 _0969_
*1122 _0970_
*1123 _0971_
*1124 _0972_
*1125 _0973_
*1126 _0974_
*1127 _0975_
*1128 _0976_
*1129 _0977_
*1130 _0978_
*1131 _0979_
*1132 _0980_
*1133 _0981_
*1134 _0982_
*1135 _0983_
*1136 _0984_
*1137 _0985_
*1138 _0986_
*1139 _0987_
*1140 _0988_
*1141 _0989_
*1142 _0990_
*1143 _0991_
*1144 _0992_
*1145 _0993_
*1146 _0994_
*1147 _0995_
*1148 _0996_
*1149 _0997_
*1150 _0998_
*1151 _0999_
*1152 _1000_
*1153 _1001_
*1154 _1002_
*1155 _1003_
*1156 _1004_
*1157 _1005_
*1158 _1006_
*1159 _1007_
*1160 _1008_
*1161 _1009_
*1162 _1010_
*1163 _1011_
*1164 _1012_
*1165 _1013_
*1166 _1014_
*1167 _1015_
*1168 _1016_
*1169 _1017_
*1170 _1018_
*1171 _1019_
*1172 _1020_
*1173 _1021_
*1174 _1022_
*1175 _1023_
*1176 _1024_
*1177 _1025_
*1178 _1026_
*1179 _1027_
*1180 _1028_
*1181 _1029_
*1182 _1030_
*1183 _1031_
*1184 _1032_
*1185 _1033_
*1186 _1034_
*1187 _1035_
*1188 _1036_
*1189 _1037_
*1190 _1038_
*1191 _1039_
*1192 _1040_
*1193 _1041_
*1194 _1042_
*1195 _1043_
*1196 _1044_
*1197 _1045_
*1198 _1046_
*1199 _1047_
*1200 _1048_
*1201 _1049_
*1202 _1050_
*1203 _1051_
*1204 _1052_
*1205 _1053_
*1206 _1054_
*1207 _1055_
*1208 _1056_
*1209 _1057_
*1210 _1058_
*1211 _1059_
*1212 _1060_
*1213 _1061_
*1214 _1062_
*1215 _1063_
*1216 _1064_
*1217 _1065_
*1218 _1066_
*1219 _1067_
*1220 _1068_
*1221 _1069_
*1222 _1070_
*1223 _1071_
*1224 _1072_
*1225 _1073_
*1226 _1074_
*1227 _1075_
*1228 _1076_
*1229 _1077_
*1230 _1078_
*1231 _1079_
*1232 _1080_
*1233 _1081_
*1234 _1082_
*1235 _1083_
*1236 _1084_
*1237 _1085_
*1238 _1086_
*1239 _1087_
*1240 _1088_
*1241 _1089_
*1242 _1090_
*1243 _1091_
*1244 _1092_
*1245 _1093_
*1246 _1094_
*1247 _1095_
*1248 _1096_
*1249 _1097_
*1250 _1098_
*1251 _1099_
*1252 _1100_
*1253 _1101_
*1254 _1102_
*1255 _1103_
*1256 _1104_
*1257 _1105_
*1258 _1106_
*1259 _1107_
*1260 _1108_
*1261 _1109_
*1262 _1110_
*1263 _1111_
*1264 _1112_
*1265 _1113_
*1266 _1114_
*1267 _1115_
*1268 _1116_
*1269 _1117_
*1270 _1118_
*1271 _1119_
*1272 _1120_
*1273 _1121_
*1274 _1122_
*1275 _1123_
*1276 _1124_
*1277 _1125_
*1278 _1126_
*1279 _1127_
*1280 _1128_
*1281 _1129_
*1282 _1130_
*1283 _1131_
*1284 _1132_
*1285 _1133_
*1286 _1134_
*1287 _1135_
*1288 _1136_
*1289 _1137_
*1290 _1138_
*1291 _1139_
*1292 _1140_
*1293 _1141_
*1294 _1142_
*1295 _1143_
*1296 _1144_
*1297 _1145_
*1298 _1146_
*1299 _1147_
*1300 _1148_
*1301 _1149_
*1302 _1150_
*1303 _1151_
*1304 _1152_
*1305 _1153_
*1306 _1154_
*1307 _1155_
*1308 _1156_
*1309 _1157_
*1310 _1158_
*1311 _1159_
*1312 _1160_
*1313 _1161_
*1314 _1162_
*1315 _1163_
*1316 _1164_
*1317 _1165_
*1318 _1166_
*1319 _1167_
*1320 _1168_
*1321 _1169_
*1322 _1170_
*1323 _1171_
*1324 _1172_
*1325 _1173_
*1326 _1174_
*1327 _1175_
*1328 _1176_
*1329 _1177_
*1330 _1178_
*1331 _1179_
*1332 _1180_
*1333 _1181_
*1334 _1182_
*1335 _1183_
*1336 _1184_
*1337 _1185_
*1338 _1186_
*1339 _1187_
*1340 _1188_
*1341 _1189_
*1342 _1190_
*1343 _1191_
*1344 _1192_
*1345 _1193_
*1346 _1194_
*1347 _1195_
*1348 _1196_
*1349 _1197_
*1350 _1198_
*1351 _1199_
*1352 _1200_
*1353 _1201_
*1354 _1202_
*1355 _1203_
*1356 _1204_
*1357 _1205_
*1358 _1206_
*1359 _1207_
*1360 _1208_
*1361 _1209_
*1362 _1210_
*1363 _1211_
*1364 _1212_
*1365 _1213_
*1366 _1214_
*1367 _1215_
*1368 _1216_
*1369 _1217_
*1370 _1218_
*1371 _1219_
*1372 _1220_
*1373 _1221_
*1374 _1222_
*1375 _1223_
*1376 _1224_
*1377 _1225_
*1378 _1226_
*1379 _1227_
*1380 _1228_
*1381 _1229_
*1382 _1230_
*1383 _1231_
*1384 _1232_
*1385 _1233_
*1386 _1234_
*1387 _1235_
*1388 _1236_
*1389 _1237_
*1390 _1238_
*1391 _1239_
*1392 _1240_
*1393 _1241_
*1394 _1242_
*1395 _1243_
*1396 _1244_
*1397 _1245_
*1398 _1246_
*1399 _1247_
*1400 _1248_
*1401 _1249_
*1402 _1250_
*1403 _1251_
*1404 _1252_
*1405 _1253_
*1406 _1254_
*1407 _1255_
*1408 _1256_
*1409 _1257_
*1410 _1258_
*1411 _1259_
*1412 _1260_
*1413 _1261_
*1414 _1262_
*1415 _1263_
*1416 _1264_
*1417 _1265_
*1418 _1266_
*1419 _1267_
*1420 _1268_
*1421 _1269_
*1422 _1270_
*1423 _1271_
*1424 _1272_
*1425 _1273_
*1426 _1274_
*1427 _1275_
*1428 _1276_
*1429 _1277_
*1430 _1278_
*1431 _1279_
*1432 _1280_
*1433 _1281_
*1434 _1282_
*1435 _1283_
*1436 _1284_
*1437 _1285_
*1438 _1286_
*1439 _1287_
*1440 _1288_
*1441 _1289_
*1442 _1290_
*1443 _1291_
*1444 _1292_
*1445 _1293_
*1446 _1294_
*1447 _1295_
*1448 _1296_
*1449 _1297_
*1450 _1298_
*1451 _1299_
*1452 _1300_
*1453 _1301_
*1454 _1302_
*1455 _1303_
*1456 _1304_
*1457 _1305_
*1458 _1306_
*1459 _1307_
*1460 _1308_
*1461 _1309_
*1462 _1310_
*1463 _1311_
*1464 _1312_
*1465 _1313_
*1466 _1314_
*1467 _1315_
*1468 _1316_
*1469 _1317_
*1470 _1318_
*1471 _1319_
*1472 _1320_
*1473 _1321_
*1474 _1322_
*1475 _1323_
*1476 _1324_
*1477 _1325_
*1478 _1326_
*1479 _1327_
*1480 _1328_
*1481 _1329_
*1482 _1330_
*1483 _1331_
*1484 _1332_
*1485 _1333_
*1486 _1334_
*1487 _1335_
*1488 _1336_
*1489 _1337_
*1490 _1338_
*1491 _1339_
*1492 _1340_
*1493 _1341_
*1494 _1342_
*1495 _1343_
*1496 _1344_
*1497 _1345_
*1498 _1346_
*1499 _1347_
*1500 _1348_
*1501 _1349_
*1502 _1350_
*1503 _1351_
*1504 _1352_
*1505 _1353_
*1506 _1354_
*1507 _1355_
*1508 _1356_
*1509 _1357_
*1510 _1358_
*1511 _1359_
*1512 _1360_
*1513 _1361_
*1514 _1362_
*1515 _1363_
*1516 _1364_
*1517 _1365_
*1518 _1366_
*1519 _1367_
*1520 _1368_
*1521 _1369_
*1522 _1370_
*1523 _1371_
*1524 _1372_
*1525 _1373_
*1526 _1374_
*1527 _1375_
*1528 _1376_
*1529 _1377_
*1530 _1378_
*1531 _1379_
*1532 _1380_
*1533 _1381_
*1534 _1382_
*1535 _1383_
*1536 _1384_
*1537 _1385_
*1538 _1386_
*1539 _1387_
*1540 _1388_
*1541 _1389_
*1542 _1390_
*1543 _1391_
*1544 _1392_
*1545 _1393_
*1546 _1394_
*1547 _1395_
*1548 _1396_
*1549 _1397_
*1550 _1398_
*1551 _1399_
*1552 _1400_
*1553 _1401_
*1554 _1402_
*1555 _1403_
*1556 _1404_
*1557 _1405_
*1558 _1406_
*1559 _1407_
*1560 _1408_
*1561 _1409_
*1562 _1410_
*1563 _1411_
*1564 _1412_
*1565 _1413_
*1566 _1414_
*1567 _1415_
*1568 _1416_
*1569 _1417_
*1570 _1418_
*1571 _1419_
*1572 _1420_
*1573 _1421_
*1574 _1422_
*1575 _1423_
*1576 _1424_
*1577 _1425_
*1578 _1426_
*1579 _1427_
*1580 _1428_
*1581 _1429_
*1582 _1430_
*1583 _1431_
*1584 _1432_
*1585 _1433_
*1586 _1434_
*1587 _1435_
*1588 _1436_
*1589 _1437_
*1590 _1438_
*1591 _1439_
*1592 _1440_
*1593 _1441_
*1594 _1442_
*1595 _1443_
*1596 _1444_
*1597 _1445_
*1598 _1446_
*1599 _1447_
*1600 _1448_
*1601 _1449_
*1602 _1450_
*1603 _1451_
*1604 _1452_
*1605 _1453_
*1606 _1454_
*1607 _1455_
*1608 _1456_
*1609 _1457_
*1610 _1458_
*1611 _1459_
*1612 _1460_
*1613 _1461_
*1614 _1462_
*1615 _1463_
*1616 _1464_
*1617 _1465_
*1618 _1466_
*1619 _1467_
*1620 _1468_
*1621 _1469_
*1622 _1470_
*1623 _1471_
*1624 _1472_
*1625 _1473_
*1626 _1474_
*1627 _1475_
*1628 _1476_
*1629 _1477_
*1630 _1478_
*1631 _1479_
*1632 _1480_
*1633 _1481_
*1634 _1482_
*1635 _1483_
*1636 _1484_
*1637 _1485_
*1638 _1486_
*1639 _1487_
*1640 _1488_
*1641 _1489_
*1642 _1490_
*1643 _1491_
*1644 _1492_
*1645 _1493_
*1646 _1494_
*1647 _1495_
*1648 _1496_
*1649 _1497_
*1650 _1498_
*1651 _1499_
*1652 _1500_
*1653 _1501_
*1654 _1502_
*1655 _1503_
*1656 _1504_
*1657 _1505_
*1658 _1506_
*1659 _1507_
*1660 _1508_
*1661 _1509_
*1662 _1510_
*1663 _1511_
*1664 _1512_
*1665 _1513_
*1666 _1514_
*1667 _1515_
*1668 _1516_
*1669 _1517_
*1670 _1518_
*1671 _1519_
*1672 _1520_
*1673 _1521_
*1674 _1522_
*1675 _1523_
*1676 _1524_
*1677 _1525_
*1678 _1526_
*1679 _1527_
*1680 _1528_
*1681 _1529_
*1682 _1530_
*1683 _1531_
*1684 _1532_
*1685 _1533_
*1686 _1534_
*1687 _1535_
*1688 _1536_
*1689 _1537_
*1690 _1538_
*1691 _1539_
*1692 _1540_
*1693 _1541_
*1694 _1542_
*1695 _1543_
*1696 _1544_
*1697 _1545_
*1698 _1546_
*1699 _1547_
*1700 _1548_
*1701 _1549_
*1702 _1550_
*1703 _1551_
*1704 _1552_
*1705 _1553_
*1706 _1554_
*1707 _1555_
*1708 _1556_
*1709 _1557_
*1710 _1558_
*1711 _1559_
*1712 _1560_
*1713 _1561_
*1714 _1562_
*1715 _1563_
*1716 _1564_
*1717 _1565_
*1718 _1566_
*1719 _1567_
*1720 _1568_
*1721 _1569_
*1722 _1570_
*1723 _1571_
*1724 _1572_
*1725 _1573_
*1726 _1574_
*1727 _1575_
*1728 _1576_
*1729 _1577_
*1730 _1578_
*1731 _1579_
*1732 _1580_
*1733 _1581_
*1734 _1582_
*1735 _1583_
*1736 _1584_
*1737 _1585_
*1738 _1586_
*1739 _1587_
*1740 _1588_
*1741 _1589_
*1742 _1590_
*1743 _1591_
*1744 _1592_
*1745 _1593_
*1746 _1594_
*1747 _1595_
*1748 _1596_
*1749 _1597_
*1750 _1598_
*1751 _1599_
*1752 _1600_
*1753 _1601_
*1754 _1602_
*1755 _1603_
*1756 _1604_
*1757 _1605_
*1758 _1606_
*1759 _1607_
*1760 _1608_
*1761 _1609_
*1762 _1610_
*1763 _1611_
*1764 _1612_
*1765 _1613_
*1766 _1614_
*1767 _1615_
*1768 _1616_
*1769 _1617_
*1770 _1618_
*1771 _1619_
*1772 _1620_
*1773 _1621_
*1774 _1622_
*1775 _1623_
*1776 _1624_
*1777 _1625_
*1778 _1626_
*1779 _1627_
*1780 _1628_
*1781 _1629_
*1782 _1630_
*1783 _1631_
*1784 _1632_
*1785 _1633_
*1786 _1634_
*1787 _1635_
*1788 _1636_
*1789 _1637_
*1790 _1638_
*1791 _1639_
*1792 _1640_
*1793 _1641_
*1794 _1642_
*1795 _1643_
*1796 _1644_
*1797 _1645_
*1798 _1646_
*1799 _1647_
*1800 _1648_
*1801 _1649_
*1802 _1650_
*1803 _1651_
*1804 _1652_
*1805 _1653_
*1806 _1654_
*1807 _1655_
*1808 _1656_
*1809 _1657_
*1810 _1658_
*1811 _1659_
*1812 _1660_
*1813 _1661_
*1814 _1662_
*1815 _1663_
*1816 _1664_
*1817 _1665_
*1818 _1666_
*1819 _1667_
*1820 _1668_
*1821 _1669_
*1822 _1670_
*1823 _1671_
*1824 _1672_
*1825 _1673_
*1826 _1674_
*1827 _1675_
*1828 _1676_
*1829 _1677_
*1830 _1678_
*1831 _1679_
*1832 _1680_
*1833 _1681_
*1834 _1682_
*1835 _1683_
*1836 _1684_
*1837 _1685_
*1838 _1686_
*1839 _1687_
*1840 _1688_
*1841 _1689_
*1842 _1690_
*1843 _1691_
*1844 _1692_
*1845 _1693_
*1846 _1694_
*1847 _1695_
*1848 _1696_
*1849 _1697_
*1850 _1698_
*1851 _1699_
*1852 _1700_
*1853 _1701_
*1854 _1702_
*1855 _1703_
*1856 _1704_
*1857 _1705_
*1858 _1706_
*1859 _1707_
*1860 _1708_
*1861 _1709_
*1862 _1710_
*1863 _1711_
*1864 _1712_
*1865 _1713_
*1866 _1714_
*1867 _1715_
*1868 _1716_
*1869 _1717_
*1870 _1718_
*1871 _1719_
*1872 _1720_
*1873 _1721_
*1874 _1722_
*1875 _1723_
*1876 _1724_
*1877 _1725_
*1878 _1726_
*1879 _1727_
*1880 _1728_
*1881 _1729_
*1882 _1730_
*1883 _1731_
*1884 _1732_
*1885 _1733_
*1886 _1734_
*1887 _1735_
*1888 _1736_
*1889 _1737_
*1890 _1738_
*1891 _1739_
*1892 _1740_
*1893 _1741_
*1894 _1742_
*1895 _1743_
*1896 _1744_
*1897 _1745_
*1898 _1746_
*1899 _1747_
*1900 _1748_
*1901 _1749_
*1902 _1750_
*1903 _1751_
*1904 _1752_
*1905 _1753_
*1906 _1754_
*1907 _1755_
*1908 _1756_
*1909 _1757_
*1910 _1758_
*1911 _1759_
*1912 _1760_
*1913 _1761_
*1914 _1762_
*1915 _1763_
*1916 _1764_
*1917 _1765_
*1918 _1766_
*1919 _1767_
*1920 _1768_
*1921 _1769_
*1922 _1770_
*1923 _1771_
*1924 _1772_
*1925 _1773_
*1926 _1774_
*1927 _1775_
*1928 _1776_
*1929 _1777_
*1930 _1778_
*1931 _1779_
*1932 _1780_
*1933 _1781_
*1934 _1782_
*1935 _1783_
*1936 _1784_
*1937 _1785_
*1938 _1786_
*1939 _1787_
*1940 _1788_
*1941 _1789_
*1942 _1790_
*1943 _1791_
*1944 _1792_
*1945 _1793_
*1946 _1794_
*1947 _1795_
*1948 _1796_
*1949 _1797_
*1950 _1798_
*1951 _1799_
*1952 _1800_
*1953 _1801_
*1954 _1802_
*1955 _1803_
*1956 _1804_
*1957 _1805_
*1958 _1806_
*1959 _1807_
*1960 _1808_
*1961 _1809_
*1962 _1810_
*1963 _1811_
*1964 _1812_
*1965 _1813_
*1966 _1814_
*1967 _1815_
*1968 _1816_
*1969 _1817_
*1970 _1818_
*1971 _1819_
*1972 _1820_
*1973 _1821_
*1974 _1822_
*1975 _1823_
*1976 _1824_
*1977 _1825_
*1978 _1826_
*1979 _1827_
*1980 _1828_
*1981 _1829_
*1982 _1830_
*1983 _1831_
*1984 _1832_
*1985 _1833_
*1986 _1834_
*1987 _1835_
*1988 _1836_
*1989 _1837_
*1990 _1838_
*1991 _1839_
*1992 _1840_
*1993 _1841_
*1994 _1842_
*1995 _1843_
*1996 _1844_
*1997 _1845_
*1998 _1846_
*1999 _1847_
*2000 _1848_
*2001 _1849_
*2002 _1850_
*2003 clknet_0_clk
*2004 clknet_3_0__leaf_clk
*2005 clknet_3_1__leaf_clk
*2006 clknet_3_2__leaf_clk
*2007 clknet_3_3__leaf_clk
*2008 clknet_3_4__leaf_clk
*2009 clknet_3_5__leaf_clk
*2010 clknet_3_6__leaf_clk
*2011 clknet_3_7__leaf_clk
*2012 clknet_leaf_0_clk
*2013 clknet_leaf_10_clk
*2014 clknet_leaf_11_clk
*2015 clknet_leaf_12_clk
*2016 clknet_leaf_13_clk
*2017 clknet_leaf_14_clk
*2018 clknet_leaf_15_clk
*2019 clknet_leaf_16_clk
*2020 clknet_leaf_17_clk
*2021 clknet_leaf_18_clk
*2022 clknet_leaf_19_clk
*2023 clknet_leaf_1_clk
*2024 clknet_leaf_20_clk
*2025 clknet_leaf_21_clk
*2026 clknet_leaf_22_clk
*2027 clknet_leaf_23_clk
*2028 clknet_leaf_24_clk
*2029 clknet_leaf_25_clk
*2030 clknet_leaf_26_clk
*2031 clknet_leaf_27_clk
*2032 clknet_leaf_28_clk
*2033 clknet_leaf_29_clk
*2034 clknet_leaf_2_clk
*2035 clknet_leaf_30_clk
*2036 clknet_leaf_31_clk
*2037 clknet_leaf_32_clk
*2038 clknet_leaf_33_clk
*2039 clknet_leaf_34_clk
*2040 clknet_leaf_35_clk
*2041 clknet_leaf_36_clk
*2042 clknet_leaf_37_clk
*2043 clknet_leaf_38_clk
*2044 clknet_leaf_39_clk
*2045 clknet_leaf_3_clk
*2046 clknet_leaf_40_clk
*2047 clknet_leaf_41_clk
*2048 clknet_leaf_42_clk
*2049 clknet_leaf_43_clk
*2050 clknet_leaf_44_clk
*2051 clknet_leaf_45_clk
*2052 clknet_leaf_46_clk
*2053 clknet_leaf_47_clk
*2054 clknet_leaf_48_clk
*2055 clknet_leaf_49_clk
*2056 clknet_leaf_4_clk
*2057 clknet_leaf_50_clk
*2058 clknet_leaf_51_clk
*2059 clknet_leaf_52_clk
*2060 clknet_leaf_53_clk
*2061 clknet_leaf_54_clk
*2062 clknet_leaf_55_clk
*2063 clknet_leaf_56_clk
*2064 clknet_leaf_57_clk
*2065 clknet_leaf_5_clk
*2066 clknet_leaf_6_clk
*2067 clknet_leaf_7_clk
*2068 clknet_leaf_8_clk
*2069 clknet_leaf_9_clk
*2070 instance_0\.mem\[0\]\[0\]
*2071 instance_0\.mem\[0\]\[10\]
*2072 instance_0\.mem\[0\]\[11\]
*2073 instance_0\.mem\[0\]\[12\]
*2074 instance_0\.mem\[0\]\[13\]
*2075 instance_0\.mem\[0\]\[14\]
*2076 instance_0\.mem\[0\]\[15\]
*2077 instance_0\.mem\[0\]\[16\]
*2078 instance_0\.mem\[0\]\[17\]
*2079 instance_0\.mem\[0\]\[18\]
*2080 instance_0\.mem\[0\]\[19\]
*2081 instance_0\.mem\[0\]\[1\]
*2082 instance_0\.mem\[0\]\[20\]
*2083 instance_0\.mem\[0\]\[21\]
*2084 instance_0\.mem\[0\]\[22\]
*2085 instance_0\.mem\[0\]\[23\]
*2086 instance_0\.mem\[0\]\[24\]
*2087 instance_0\.mem\[0\]\[25\]
*2088 instance_0\.mem\[0\]\[26\]
*2089 instance_0\.mem\[0\]\[27\]
*2090 instance_0\.mem\[0\]\[28\]
*2091 instance_0\.mem\[0\]\[29\]
*2092 instance_0\.mem\[0\]\[2\]
*2093 instance_0\.mem\[0\]\[30\]
*2094 instance_0\.mem\[0\]\[31\]
*2095 instance_0\.mem\[0\]\[32\]
*2096 instance_0\.mem\[0\]\[33\]
*2097 instance_0\.mem\[0\]\[34\]
*2098 instance_0\.mem\[0\]\[35\]
*2099 instance_0\.mem\[0\]\[36\]
*2100 instance_0\.mem\[0\]\[37\]
*2101 instance_0\.mem\[0\]\[38\]
*2102 instance_0\.mem\[0\]\[39\]
*2103 instance_0\.mem\[0\]\[3\]
*2104 instance_0\.mem\[0\]\[40\]
*2105 instance_0\.mem\[0\]\[41\]
*2106 instance_0\.mem\[0\]\[42\]
*2107 instance_0\.mem\[0\]\[43\]
*2108 instance_0\.mem\[0\]\[44\]
*2109 instance_0\.mem\[0\]\[45\]
*2110 instance_0\.mem\[0\]\[46\]
*2111 instance_0\.mem\[0\]\[47\]
*2112 instance_0\.mem\[0\]\[48\]
*2113 instance_0\.mem\[0\]\[49\]
*2114 instance_0\.mem\[0\]\[4\]
*2115 instance_0\.mem\[0\]\[50\]
*2116 instance_0\.mem\[0\]\[51\]
*2117 instance_0\.mem\[0\]\[52\]
*2118 instance_0\.mem\[0\]\[53\]
*2119 instance_0\.mem\[0\]\[54\]
*2120 instance_0\.mem\[0\]\[55\]
*2121 instance_0\.mem\[0\]\[56\]
*2122 instance_0\.mem\[0\]\[57\]
*2123 instance_0\.mem\[0\]\[58\]
*2124 instance_0\.mem\[0\]\[59\]
*2125 instance_0\.mem\[0\]\[5\]
*2126 instance_0\.mem\[0\]\[60\]
*2127 instance_0\.mem\[0\]\[61\]
*2128 instance_0\.mem\[0\]\[62\]
*2129 instance_0\.mem\[0\]\[63\]
*2130 instance_0\.mem\[0\]\[64\]
*2131 instance_0\.mem\[0\]\[65\]
*2132 instance_0\.mem\[0\]\[66\]
*2133 instance_0\.mem\[0\]\[67\]
*2134 instance_0\.mem\[0\]\[68\]
*2135 instance_0\.mem\[0\]\[69\]
*2136 instance_0\.mem\[0\]\[6\]
*2137 instance_0\.mem\[0\]\[70\]
*2138 instance_0\.mem\[0\]\[71\]
*2139 instance_0\.mem\[0\]\[7\]
*2140 instance_0\.mem\[0\]\[8\]
*2141 instance_0\.mem\[0\]\[9\]
*2142 instance_0\.mem\[1\]\[0\]
*2143 instance_0\.mem\[1\]\[10\]
*2144 instance_0\.mem\[1\]\[11\]
*2145 instance_0\.mem\[1\]\[12\]
*2146 instance_0\.mem\[1\]\[13\]
*2147 instance_0\.mem\[1\]\[14\]
*2148 instance_0\.mem\[1\]\[15\]
*2149 instance_0\.mem\[1\]\[16\]
*2150 instance_0\.mem\[1\]\[17\]
*2151 instance_0\.mem\[1\]\[18\]